


                               __________________________________________
                              |                                          |
                              |  NUMERICAL ELECTROMAGNETICS CODE (nec2c) |
                              |   Translated to 'C' in Double Precision  |
                              |__________________________________________|



                               ---------------- COMMENTS ----------------
                               Dipolo para benchmark 3
                              



                               -------- STRUCTURE SPECIFICATION --------
                                     COORDINATES MUST BE INPUT IN
                                     METERS OR BE SCALED TO METERS
                                     BEFORE STRUCTURE INPUT IS ENDED

  WIRE                                                                                 SEG FIRST  LAST  TAG
   No:        X1         Y1         Z1         X2         Y2         Z2       RADIUS   No:   SEG   SEG  No:
     1      1.0000     0.0000    -0.2500     1.0000     0.0000     0.2500     0.0010    49     1    49    1
     2      0.7071     0.7071    -0.2500     0.7071     0.7071     0.2500     0.0010    49    50    98    2
     3     -0.0000     1.0000    -0.2500    -0.0000     1.0000     0.2500     0.0010    49    99   147    3
     4     -0.7071     0.7071    -0.2500    -0.7071     0.7071     0.2500     0.0010    49   148   196    4
     5     -1.0000    -0.0000    -0.2500    -1.0000    -0.0000     0.2500     0.0010    49   197   245    5
     6     -0.7071    -0.7071    -0.2500    -0.7071    -0.7071     0.2500     0.0010    49   246   294    6
     7      0.0000    -1.0000    -0.2500     0.0000    -1.0000     0.2500     0.0010    49   295   343    7
     8      0.7071    -0.7071    -0.2500     0.7071    -0.7071     0.2500     0.0010    49   344   392    8

     TOTAL SEGMENTS USED: 392   SEGMENTS IN A SYMMETRIC CELL: 392   SYMMETRY FLAG: 0


                               ---------- SEGMENTATION DATA ----------
                                        COORDINATES IN METERS
                            I+ AND I- INDICATE THE SEGMENTS BEFORE AND AFTER I

   SEG    COORDINATES OF SEGM CENTER     SEGM    ORIENTATION ANGLES    WIRE    CONNECTION DATA   TAG
   No:       X         Y         Z      LENGTH     ALPHA      BETA    RADIUS    I-     I    I+   No:
     1    1.0000    0.0000   -0.2449    0.0102   90.0000    0.0000    0.0010     0     1     2     1
     2    1.0000    0.0000   -0.2347    0.0102   90.0000    0.0000    0.0010     1     2     3     1
     3    1.0000    0.0000   -0.2245    0.0102   90.0000    0.0000    0.0010     2     3     4     1
     4    1.0000    0.0000   -0.2143    0.0102   90.0000    0.0000    0.0010     3     4     5     1
     5    1.0000    0.0000   -0.2041    0.0102   90.0000    0.0000    0.0010     4     5     6     1
     6    1.0000    0.0000   -0.1939    0.0102   90.0000    0.0000    0.0010     5     6     7     1
     7    1.0000    0.0000   -0.1837    0.0102   90.0000    0.0000    0.0010     6     7     8     1
     8    1.0000    0.0000   -0.1735    0.0102   90.0000    0.0000    0.0010     7     8     9     1
     9    1.0000    0.0000   -0.1633    0.0102   90.0000    0.0000    0.0010     8     9    10     1
    10    1.0000    0.0000   -0.1531    0.0102   90.0000    0.0000    0.0010     9    10    11     1
    11    1.0000    0.0000   -0.1429    0.0102   90.0000    0.0000    0.0010    10    11    12     1
    12    1.0000    0.0000   -0.1327    0.0102   90.0000    0.0000    0.0010    11    12    13     1
    13    1.0000    0.0000   -0.1224    0.0102   90.0000    0.0000    0.0010    12    13    14     1
    14    1.0000    0.0000   -0.1122    0.0102   90.0000    0.0000    0.0010    13    14    15     1
    15    1.0000    0.0000   -0.1020    0.0102   90.0000    0.0000    0.0010    14    15    16     1
    16    1.0000    0.0000   -0.0918    0.0102   90.0000    0.0000    0.0010    15    16    17     1
    17    1.0000    0.0000   -0.0816    0.0102   90.0000    0.0000    0.0010    16    17    18     1
    18    1.0000    0.0000   -0.0714    0.0102   90.0000    0.0000    0.0010    17    18    19     1
    19    1.0000    0.0000   -0.0612    0.0102   90.0000    0.0000    0.0010    18    19    20     1
    20    1.0000    0.0000   -0.0510    0.0102   90.0000    0.0000    0.0010    19    20    21     1
    21    1.0000    0.0000   -0.0408    0.0102   90.0000    0.0000    0.0010    20    21    22     1
    22    1.0000    0.0000   -0.0306    0.0102   90.0000    0.0000    0.0010    21    22    23     1
    23    1.0000    0.0000   -0.0204    0.0102   90.0000    0.0000    0.0010    22    23    24     1
    24    1.0000    0.0000   -0.0102    0.0102   90.0000    0.0000    0.0010    23    24    25     1
    25    1.0000    0.0000   -0.0000    0.0102   90.0000    0.0000    0.0010    24    25    26     1
    26    1.0000    0.0000    0.0102    0.0102   90.0000    0.0000    0.0010    25    26    27     1
    27    1.0000    0.0000    0.0204    0.0102   90.0000    0.0000    0.0010    26    27    28     1
    28    1.0000    0.0000    0.0306    0.0102   90.0000    0.0000    0.0010    27    28    29     1
    29    1.0000    0.0000    0.0408    0.0102   90.0000    0.0000    0.0010    28    29    30     1
    30    1.0000    0.0000    0.0510    0.0102   90.0000    0.0000    0.0010    29    30    31     1
    31    1.0000    0.0000    0.0612    0.0102   90.0000    0.0000    0.0010    30    31    32     1
    32    1.0000    0.0000    0.0714    0.0102   90.0000    0.0000    0.0010    31    32    33     1
    33    1.0000    0.0000    0.0816    0.0102   90.0000    0.0000    0.0010    32    33    34     1
    34    1.0000    0.0000    0.0918    0.0102   90.0000    0.0000    0.0010    33    34    35     1
    35    1.0000    0.0000    0.1020    0.0102   90.0000    0.0000    0.0010    34    35    36     1
    36    1.0000    0.0000    0.1122    0.0102   90.0000    0.0000    0.0010    35    36    37     1
    37    1.0000    0.0000    0.1224    0.0102   90.0000    0.0000    0.0010    36    37    38     1
    38    1.0000    0.0000    0.1327    0.0102   90.0000    0.0000    0.0010    37    38    39     1
    39    1.0000    0.0000    0.1429    0.0102   90.0000    0.0000    0.0010    38    39    40     1
    40    1.0000    0.0000    0.1531    0.0102   90.0000    0.0000    0.0010    39    40    41     1
    41    1.0000    0.0000    0.1633    0.0102   90.0000    0.0000    0.0010    40    41    42     1
    42    1.0000    0.0000    0.1735    0.0102   90.0000    0.0000    0.0010    41    42    43     1
    43    1.0000    0.0000    0.1837    0.0102   90.0000    0.0000    0.0010    42    43    44     1
    44    1.0000    0.0000    0.1939    0.0102   90.0000    0.0000    0.0010    43    44    45     1
    45    1.0000    0.0000    0.2041    0.0102   90.0000    0.0000    0.0010    44    45    46     1
    46    1.0000    0.0000    0.2143    0.0102   90.0000    0.0000    0.0010    45    46    47     1
    47    1.0000    0.0000    0.2245    0.0102   90.0000    0.0000    0.0010    46    47    48     1
    48    1.0000    0.0000    0.2347    0.0102   90.0000    0.0000    0.0010    47    48    49     1
    49    1.0000    0.0000    0.2449    0.0102   90.0000    0.0000    0.0010    48    49     0     1
    50    0.7071    0.7071   -0.2449    0.0102   90.0000    0.0000    0.0010     0    50    51     2
    51    0.7071    0.7071   -0.2347    0.0102   90.0000    0.0000    0.0010    50    51    52     2
    52    0.7071    0.7071   -0.2245    0.0102   90.0000    0.0000    0.0010    51    52    53     2
    53    0.7071    0.7071   -0.2143    0.0102   90.0000    0.0000    0.0010    52    53    54     2
    54    0.7071    0.7071   -0.2041    0.0102   90.0000    0.0000    0.0010    53    54    55     2
    55    0.7071    0.7071   -0.1939    0.0102   90.0000    0.0000    0.0010    54    55    56     2
    56    0.7071    0.7071   -0.1837    0.0102   90.0000    0.0000    0.0010    55    56    57     2
    57    0.7071    0.7071   -0.1735    0.0102   90.0000    0.0000    0.0010    56    57    58     2
    58    0.7071    0.7071   -0.1633    0.0102   90.0000    0.0000    0.0010    57    58    59     2
    59    0.7071    0.7071   -0.1531    0.0102   90.0000    0.0000    0.0010    58    59    60     2
    60    0.7071    0.7071   -0.1429    0.0102   90.0000    0.0000    0.0010    59    60    61     2
    61    0.7071    0.7071   -0.1327    0.0102   90.0000    0.0000    0.0010    60    61    62     2
    62    0.7071    0.7071   -0.1224    0.0102   90.0000    0.0000    0.0010    61    62    63     2
    63    0.7071    0.7071   -0.1122    0.0102   90.0000    0.0000    0.0010    62    63    64     2
    64    0.7071    0.7071   -0.1020    0.0102   90.0000    0.0000    0.0010    63    64    65     2
    65    0.7071    0.7071   -0.0918    0.0102   90.0000    0.0000    0.0010    64    65    66     2
    66    0.7071    0.7071   -0.0816    0.0102   90.0000    0.0000    0.0010    65    66    67     2
    67    0.7071    0.7071   -0.0714    0.0102   90.0000    0.0000    0.0010    66    67    68     2
    68    0.7071    0.7071   -0.0612    0.0102   90.0000    0.0000    0.0010    67    68    69     2
    69    0.7071    0.7071   -0.0510    0.0102   90.0000    0.0000    0.0010    68    69    70     2
    70    0.7071    0.7071   -0.0408    0.0102   90.0000    0.0000    0.0010    69    70    71     2
    71    0.7071    0.7071   -0.0306    0.0102   90.0000    0.0000    0.0010    70    71    72     2
    72    0.7071    0.7071   -0.0204    0.0102   90.0000    0.0000    0.0010    71    72    73     2
    73    0.7071    0.7071   -0.0102    0.0102   90.0000    0.0000    0.0010    72    73    74     2
    74    0.7071    0.7071   -0.0000    0.0102   90.0000    0.0000    0.0010    73    74    75     2
    75    0.7071    0.7071    0.0102    0.0102   90.0000    0.0000    0.0010    74    75    76     2
    76    0.7071    0.7071    0.0204    0.0102   90.0000    0.0000    0.0010    75    76    77     2
    77    0.7071    0.7071    0.0306    0.0102   90.0000    0.0000    0.0010    76    77    78     2
    78    0.7071    0.7071    0.0408    0.0102   90.0000    0.0000    0.0010    77    78    79     2
    79    0.7071    0.7071    0.0510    0.0102   90.0000    0.0000    0.0010    78    79    80     2
    80    0.7071    0.7071    0.0612    0.0102   90.0000    0.0000    0.0010    79    80    81     2
    81    0.7071    0.7071    0.0714    0.0102   90.0000    0.0000    0.0010    80    81    82     2
    82    0.7071    0.7071    0.0816    0.0102   90.0000    0.0000    0.0010    81    82    83     2
    83    0.7071    0.7071    0.0918    0.0102   90.0000    0.0000    0.0010    82    83    84     2
    84    0.7071    0.7071    0.1020    0.0102   90.0000    0.0000    0.0010    83    84    85     2
    85    0.7071    0.7071    0.1122    0.0102   90.0000    0.0000    0.0010    84    85    86     2
    86    0.7071    0.7071    0.1224    0.0102   90.0000    0.0000    0.0010    85    86    87     2
    87    0.7071    0.7071    0.1327    0.0102   90.0000    0.0000    0.0010    86    87    88     2
    88    0.7071    0.7071    0.1429    0.0102   90.0000    0.0000    0.0010    87    88    89     2
    89    0.7071    0.7071    0.1531    0.0102   90.0000    0.0000    0.0010    88    89    90     2
    90    0.7071    0.7071    0.1633    0.0102   90.0000    0.0000    0.0010    89    90    91     2
    91    0.7071    0.7071    0.1735    0.0102   90.0000    0.0000    0.0010    90    91    92     2
    92    0.7071    0.7071    0.1837    0.0102   90.0000    0.0000    0.0010    91    92    93     2
    93    0.7071    0.7071    0.1939    0.0102   90.0000    0.0000    0.0010    92    93    94     2
    94    0.7071    0.7071    0.2041    0.0102   90.0000    0.0000    0.0010    93    94    95     2
    95    0.7071    0.7071    0.2143    0.0102   90.0000    0.0000    0.0010    94    95    96     2
    96    0.7071    0.7071    0.2245    0.0102   90.0000    0.0000    0.0010    95    96    97     2
    97    0.7071    0.7071    0.2347    0.0102   90.0000    0.0000    0.0010    96    97    98     2
    98    0.7071    0.7071    0.2449    0.0102   90.0000    0.0000    0.0010    97    98     0     2
    99    0.0000    1.0000   -0.2449    0.0102   90.0000    0.0000    0.0010     0    99   100     3
   100    0.0000    1.0000   -0.2347    0.0102   90.0000    0.0000    0.0010    99   100   101     3
   101    0.0000    1.0000   -0.2245    0.0102   90.0000    0.0000    0.0010   100   101   102     3
   102    0.0000    1.0000   -0.2143    0.0102   90.0000    0.0000    0.0010   101   102   103     3
   103    0.0000    1.0000   -0.2041    0.0102   90.0000    0.0000    0.0010   102   103   104     3
   104    0.0000    1.0000   -0.1939    0.0102   90.0000    0.0000    0.0010   103   104   105     3
   105    0.0000    1.0000   -0.1837    0.0102   90.0000    0.0000    0.0010   104   105   106     3
   106    0.0000    1.0000   -0.1735    0.0102   90.0000    0.0000    0.0010   105   106   107     3
   107    0.0000    1.0000   -0.1633    0.0102   90.0000    0.0000    0.0010   106   107   108     3
   108    0.0000    1.0000   -0.1531    0.0102   90.0000    0.0000    0.0010   107   108   109     3
   109    0.0000    1.0000   -0.1429    0.0102   90.0000    0.0000    0.0010   108   109   110     3
   110    0.0000    1.0000   -0.1327    0.0102   90.0000    0.0000    0.0010   109   110   111     3
   111    0.0000    1.0000   -0.1224    0.0102   90.0000    0.0000    0.0010   110   111   112     3
   112    0.0000    1.0000   -0.1122    0.0102   90.0000    0.0000    0.0010   111   112   113     3
   113    0.0000    1.0000   -0.1020    0.0102   90.0000    0.0000    0.0010   112   113   114     3
   114    0.0000    1.0000   -0.0918    0.0102   90.0000    0.0000    0.0010   113   114   115     3
   115    0.0000    1.0000   -0.0816    0.0102   90.0000    0.0000    0.0010   114   115   116     3
   116    0.0000    1.0000   -0.0714    0.0102   90.0000    0.0000    0.0010   115   116   117     3
   117    0.0000    1.0000   -0.0612    0.0102   90.0000    0.0000    0.0010   116   117   118     3
   118    0.0000    1.0000   -0.0510    0.0102   90.0000    0.0000    0.0010   117   118   119     3
   119    0.0000    1.0000   -0.0408    0.0102   90.0000    0.0000    0.0010   118   119   120     3
   120    0.0000    1.0000   -0.0306    0.0102   90.0000    0.0000    0.0010   119   120   121     3
   121    0.0000    1.0000   -0.0204    0.0102   90.0000    0.0000    0.0010   120   121   122     3
   122    0.0000    1.0000   -0.0102    0.0102   90.0000    0.0000    0.0010   121   122   123     3
   123    0.0000    1.0000   -0.0000    0.0102   90.0000    0.0000    0.0010   122   123   124     3
   124    0.0000    1.0000    0.0102    0.0102   90.0000    0.0000    0.0010   123   124   125     3
   125    0.0000    1.0000    0.0204    0.0102   90.0000    0.0000    0.0010   124   125   126     3
   126    0.0000    1.0000    0.0306    0.0102   90.0000    0.0000    0.0010   125   126   127     3
   127    0.0000    1.0000    0.0408    0.0102   90.0000    0.0000    0.0010   126   127   128     3
   128    0.0000    1.0000    0.0510    0.0102   90.0000    0.0000    0.0010   127   128   129     3
   129    0.0000    1.0000    0.0612    0.0102   90.0000    0.0000    0.0010   128   129   130     3
   130    0.0000    1.0000    0.0714    0.0102   90.0000    0.0000    0.0010   129   130   131     3
   131    0.0000    1.0000    0.0816    0.0102   90.0000    0.0000    0.0010   130   131   132     3
   132    0.0000    1.0000    0.0918    0.0102   90.0000    0.0000    0.0010   131   132   133     3
   133    0.0000    1.0000    0.1020    0.0102   90.0000    0.0000    0.0010   132   133   134     3
   134    0.0000    1.0000    0.1122    0.0102   90.0000    0.0000    0.0010   133   134   135     3
   135    0.0000    1.0000    0.1224    0.0102   90.0000    0.0000    0.0010   134   135   136     3
   136    0.0000    1.0000    0.1327    0.0102   90.0000    0.0000    0.0010   135   136   137     3
   137    0.0000    1.0000    0.1429    0.0102   90.0000    0.0000    0.0010   136   137   138     3
   138    0.0000    1.0000    0.1531    0.0102   90.0000    0.0000    0.0010   137   138   139     3
   139    0.0000    1.0000    0.1633    0.0102   90.0000    0.0000    0.0010   138   139   140     3
   140    0.0000    1.0000    0.1735    0.0102   90.0000    0.0000    0.0010   139   140   141     3
   141    0.0000    1.0000    0.1837    0.0102   90.0000    0.0000    0.0010   140   141   142     3
   142    0.0000    1.0000    0.1939    0.0102   90.0000    0.0000    0.0010   141   142   143     3
   143    0.0000    1.0000    0.2041    0.0102   90.0000    0.0000    0.0010   142   143   144     3
   144    0.0000    1.0000    0.2143    0.0102   90.0000    0.0000    0.0010   143   144   145     3
   145    0.0000    1.0000    0.2245    0.0102   90.0000    0.0000    0.0010   144   145   146     3
   146    0.0000    1.0000    0.2347    0.0102   90.0000    0.0000    0.0010   145   146   147     3
   147    0.0000    1.0000    0.2449    0.0102   90.0000  180.0000    0.0010   146   147     0     3
   148   -0.7071    0.7071   -0.2449    0.0102   90.0000    0.0000    0.0010     0   148   149     4
   149   -0.7071    0.7071   -0.2347    0.0102   90.0000    0.0000    0.0010   148   149   150     4
   150   -0.7071    0.7071   -0.2245    0.0102   90.0000    0.0000    0.0010   149   150   151     4
   151   -0.7071    0.7071   -0.2143    0.0102   90.0000    0.0000    0.0010   150   151   152     4
   152   -0.7071    0.7071   -0.2041    0.0102   90.0000    0.0000    0.0010   151   152   153     4
   153   -0.7071    0.7071   -0.1939    0.0102   90.0000    0.0000    0.0010   152   153   154     4
   154   -0.7071    0.7071   -0.1837    0.0102   90.0000    0.0000    0.0010   153   154   155     4
   155   -0.7071    0.7071   -0.1735    0.0102   90.0000    0.0000    0.0010   154   155   156     4
   156   -0.7071    0.7071   -0.1633    0.0102   90.0000    0.0000    0.0010   155   156   157     4
   157   -0.7071    0.7071   -0.1531    0.0102   90.0000    0.0000    0.0010   156   157   158     4
   158   -0.7071    0.7071   -0.1429    0.0102   90.0000    0.0000    0.0010   157   158   159     4
   159   -0.7071    0.7071   -0.1327    0.0102   90.0000    0.0000    0.0010   158   159   160     4
   160   -0.7071    0.7071   -0.1224    0.0102   90.0000    0.0000    0.0010   159   160   161     4
   161   -0.7071    0.7071   -0.1122    0.0102   90.0000    0.0000    0.0010   160   161   162     4
   162   -0.7071    0.7071   -0.1020    0.0102   90.0000    0.0000    0.0010   161   162   163     4
   163   -0.7071    0.7071   -0.0918    0.0102   90.0000    0.0000    0.0010   162   163   164     4
   164   -0.7071    0.7071   -0.0816    0.0102   90.0000    0.0000    0.0010   163   164   165     4
   165   -0.7071    0.7071   -0.0714    0.0102   90.0000    0.0000    0.0010   164   165   166     4
   166   -0.7071    0.7071   -0.0612    0.0102   90.0000    0.0000    0.0010   165   166   167     4
   167   -0.7071    0.7071   -0.0510    0.0102   90.0000    0.0000    0.0010   166   167   168     4
   168   -0.7071    0.7071   -0.0408    0.0102   90.0000    0.0000    0.0010   167   168   169     4
   169   -0.7071    0.7071   -0.0306    0.0102   90.0000    0.0000    0.0010   168   169   170     4
   170   -0.7071    0.7071   -0.0204    0.0102   90.0000    0.0000    0.0010   169   170   171     4
   171   -0.7071    0.7071   -0.0102    0.0102   90.0000    0.0000    0.0010   170   171   172     4
   172   -0.7071    0.7071   -0.0000    0.0102   90.0000    0.0000    0.0010   171   172   173     4
   173   -0.7071    0.7071    0.0102    0.0102   90.0000    0.0000    0.0010   172   173   174     4
   174   -0.7071    0.7071    0.0204    0.0102   90.0000    0.0000    0.0010   173   174   175     4
   175   -0.7071    0.7071    0.0306    0.0102   90.0000    0.0000    0.0010   174   175   176     4
   176   -0.7071    0.7071    0.0408    0.0102   90.0000    0.0000    0.0010   175   176   177     4
   177   -0.7071    0.7071    0.0510    0.0102   90.0000    0.0000    0.0010   176   177   178     4
   178   -0.7071    0.7071    0.0612    0.0102   90.0000    0.0000    0.0010   177   178   179     4
   179   -0.7071    0.7071    0.0714    0.0102   90.0000    0.0000    0.0010   178   179   180     4
   180   -0.7071    0.7071    0.0816    0.0102   90.0000    0.0000    0.0010   179   180   181     4
   181   -0.7071    0.7071    0.0918    0.0102   90.0000    0.0000    0.0010   180   181   182     4
   182   -0.7071    0.7071    0.1020    0.0102   90.0000    0.0000    0.0010   181   182   183     4
   183   -0.7071    0.7071    0.1122    0.0102   90.0000    0.0000    0.0010   182   183   184     4
   184   -0.7071    0.7071    0.1224    0.0102   90.0000    0.0000    0.0010   183   184   185     4
   185   -0.7071    0.7071    0.1327    0.0102   90.0000    0.0000    0.0010   184   185   186     4
   186   -0.7071    0.7071    0.1429    0.0102   90.0000    0.0000    0.0010   185   186   187     4
   187   -0.7071    0.7071    0.1531    0.0102   90.0000    0.0000    0.0010   186   187   188     4
   188   -0.7071    0.7071    0.1633    0.0102   90.0000    0.0000    0.0010   187   188   189     4
   189   -0.7071    0.7071    0.1735    0.0102   90.0000    0.0000    0.0010   188   189   190     4
   190   -0.7071    0.7071    0.1837    0.0102   90.0000    0.0000    0.0010   189   190   191     4
   191   -0.7071    0.7071    0.1939    0.0102   90.0000    0.0000    0.0010   190   191   192     4
   192   -0.7071    0.7071    0.2041    0.0102   90.0000    0.0000    0.0010   191   192   193     4
   193   -0.7071    0.7071    0.2143    0.0102   90.0000    0.0000    0.0010   192   193   194     4
   194   -0.7071    0.7071    0.2245    0.0102   90.0000    0.0000    0.0010   193   194   195     4
   195   -0.7071    0.7071    0.2347    0.0102   90.0000    0.0000    0.0010   194   195   196     4
   196   -0.7071    0.7071    0.2449    0.0102   90.0000    0.0000    0.0010   195   196     0     4
   197   -1.0000    0.0000   -0.2449    0.0102   90.0000    0.0000    0.0010     0   197   198     5
   198   -1.0000    0.0000   -0.2347    0.0102   90.0000    0.0000    0.0010   197   198   199     5
   199   -1.0000    0.0000   -0.2245    0.0102   90.0000    0.0000    0.0010   198   199   200     5
   200   -1.0000    0.0000   -0.2143    0.0102   90.0000    0.0000    0.0010   199   200   201     5
   201   -1.0000    0.0000   -0.2041    0.0102   90.0000    0.0000    0.0010   200   201   202     5
   202   -1.0000    0.0000   -0.1939    0.0102   90.0000    0.0000    0.0010   201   202   203     5
   203   -1.0000    0.0000   -0.1837    0.0102   90.0000    0.0000    0.0010   202   203   204     5
   204   -1.0000    0.0000   -0.1735    0.0102   90.0000    0.0000    0.0010   203   204   205     5
   205   -1.0000    0.0000   -0.1633    0.0102   90.0000    0.0000    0.0010   204   205   206     5
   206   -1.0000    0.0000   -0.1531    0.0102   90.0000    0.0000    0.0010   205   206   207     5
   207   -1.0000    0.0000   -0.1429    0.0102   90.0000    0.0000    0.0010   206   207   208     5
   208   -1.0000    0.0000   -0.1327    0.0102   90.0000    0.0000    0.0010   207   208   209     5
   209   -1.0000    0.0000   -0.1224    0.0102   90.0000    0.0000    0.0010   208   209   210     5
   210   -1.0000    0.0000   -0.1122    0.0102   90.0000    0.0000    0.0010   209   210   211     5
   211   -1.0000    0.0000   -0.1020    0.0102   90.0000    0.0000    0.0010   210   211   212     5
   212   -1.0000    0.0000   -0.0918    0.0102   90.0000    0.0000    0.0010   211   212   213     5
   213   -1.0000    0.0000   -0.0816    0.0102   90.0000    0.0000    0.0010   212   213   214     5
   214   -1.0000    0.0000   -0.0714    0.0102   90.0000    0.0000    0.0010   213   214   215     5
   215   -1.0000    0.0000   -0.0612    0.0102   90.0000    0.0000    0.0010   214   215   216     5
   216   -1.0000    0.0000   -0.0510    0.0102   90.0000    0.0000    0.0010   215   216   217     5
   217   -1.0000    0.0000   -0.0408    0.0102   90.0000    0.0000    0.0010   216   217   218     5
   218   -1.0000    0.0000   -0.0306    0.0102   90.0000    0.0000    0.0010   217   218   219     5
   219   -1.0000    0.0000   -0.0204    0.0102   90.0000    0.0000    0.0010   218   219   220     5
   220   -1.0000    0.0000   -0.0102    0.0102   90.0000    0.0000    0.0010   219   220   221     5
   221   -1.0000    0.0000   -0.0000    0.0102   90.0000    0.0000    0.0010   220   221   222     5
   222   -1.0000    0.0000    0.0102    0.0102   90.0000    0.0000    0.0010   221   222   223     5
   223   -1.0000    0.0000    0.0204    0.0102   90.0000    0.0000    0.0010   222   223   224     5
   224   -1.0000    0.0000    0.0306    0.0102   90.0000    0.0000    0.0010   223   224   225     5
   225   -1.0000    0.0000    0.0408    0.0102   90.0000    0.0000    0.0010   224   225   226     5
   226   -1.0000    0.0000    0.0510    0.0102   90.0000    0.0000    0.0010   225   226   227     5
   227   -1.0000    0.0000    0.0612    0.0102   90.0000    0.0000    0.0010   226   227   228     5
   228   -1.0000    0.0000    0.0714    0.0102   90.0000    0.0000    0.0010   227   228   229     5
   229   -1.0000    0.0000    0.0816    0.0102   90.0000    0.0000    0.0010   228   229   230     5
   230   -1.0000    0.0000    0.0918    0.0102   90.0000    0.0000    0.0010   229   230   231     5
   231   -1.0000    0.0000    0.1020    0.0102   90.0000    0.0000    0.0010   230   231   232     5
   232   -1.0000    0.0000    0.1122    0.0102   90.0000    0.0000    0.0010   231   232   233     5
   233   -1.0000    0.0000    0.1224    0.0102   90.0000    0.0000    0.0010   232   233   234     5
   234   -1.0000    0.0000    0.1327    0.0102   90.0000    0.0000    0.0010   233   234   235     5
   235   -1.0000    0.0000    0.1429    0.0102   90.0000    0.0000    0.0010   234   235   236     5
   236   -1.0000    0.0000    0.1531    0.0102   90.0000    0.0000    0.0010   235   236   237     5
   237   -1.0000    0.0000    0.1633    0.0102   90.0000    0.0000    0.0010   236   237   238     5
   238   -1.0000    0.0000    0.1735    0.0102   90.0000    0.0000    0.0010   237   238   239     5
   239   -1.0000    0.0000    0.1837    0.0102   90.0000    0.0000    0.0010   238   239   240     5
   240   -1.0000    0.0000    0.1939    0.0102   90.0000    0.0000    0.0010   239   240   241     5
   241   -1.0000    0.0000    0.2041    0.0102   90.0000    0.0000    0.0010   240   241   242     5
   242   -1.0000    0.0000    0.2143    0.0102   90.0000    0.0000    0.0010   241   242   243     5
   243   -1.0000    0.0000    0.2245    0.0102   90.0000    0.0000    0.0010   242   243   244     5
   244   -1.0000    0.0000    0.2347    0.0102   90.0000    0.0000    0.0010   243   244   245     5
   245   -1.0000    0.0000    0.2449    0.0102   90.0000   -0.0000    0.0010   244   245     0     5
   246   -0.7071   -0.7071   -0.2449    0.0102   90.0000    0.0000    0.0010     0   246   247     6
   247   -0.7071   -0.7071   -0.2347    0.0102   90.0000    0.0000    0.0010   246   247   248     6
   248   -0.7071   -0.7071   -0.2245    0.0102   90.0000    0.0000    0.0010   247   248   249     6
   249   -0.7071   -0.7071   -0.2143    0.0102   90.0000    0.0000    0.0010   248   249   250     6
   250   -0.7071   -0.7071   -0.2041    0.0102   90.0000    0.0000    0.0010   249   250   251     6
   251   -0.7071   -0.7071   -0.1939    0.0102   90.0000    0.0000    0.0010   250   251   252     6
   252   -0.7071   -0.7071   -0.1837    0.0102   90.0000    0.0000    0.0010   251   252   253     6
   253   -0.7071   -0.7071   -0.1735    0.0102   90.0000    0.0000    0.0010   252   253   254     6
   254   -0.7071   -0.7071   -0.1633    0.0102   90.0000    0.0000    0.0010   253   254   255     6
   255   -0.7071   -0.7071   -0.1531    0.0102   90.0000    0.0000    0.0010   254   255   256     6
   256   -0.7071   -0.7071   -0.1429    0.0102   90.0000    0.0000    0.0010   255   256   257     6
   257   -0.7071   -0.7071   -0.1327    0.0102   90.0000    0.0000    0.0010   256   257   258     6
   258   -0.7071   -0.7071   -0.1224    0.0102   90.0000    0.0000    0.0010   257   258   259     6
   259   -0.7071   -0.7071   -0.1122    0.0102   90.0000    0.0000    0.0010   258   259   260     6
   260   -0.7071   -0.7071   -0.1020    0.0102   90.0000    0.0000    0.0010   259   260   261     6
   261   -0.7071   -0.7071   -0.0918    0.0102   90.0000    0.0000    0.0010   260   261   262     6
   262   -0.7071   -0.7071   -0.0816    0.0102   90.0000    0.0000    0.0010   261   262   263     6
   263   -0.7071   -0.7071   -0.0714    0.0102   90.0000    0.0000    0.0010   262   263   264     6
   264   -0.7071   -0.7071   -0.0612    0.0102   90.0000    0.0000    0.0010   263   264   265     6
   265   -0.7071   -0.7071   -0.0510    0.0102   90.0000    0.0000    0.0010   264   265   266     6
   266   -0.7071   -0.7071   -0.0408    0.0102   90.0000    0.0000    0.0010   265   266   267     6
   267   -0.7071   -0.7071   -0.0306    0.0102   90.0000    0.0000    0.0010   266   267   268     6
   268   -0.7071   -0.7071   -0.0204    0.0102   90.0000    0.0000    0.0010   267   268   269     6
   269   -0.7071   -0.7071   -0.0102    0.0102   90.0000    0.0000    0.0010   268   269   270     6
   270   -0.7071   -0.7071   -0.0000    0.0102   90.0000    0.0000    0.0010   269   270   271     6
   271   -0.7071   -0.7071    0.0102    0.0102   90.0000    0.0000    0.0010   270   271   272     6
   272   -0.7071   -0.7071    0.0204    0.0102   90.0000    0.0000    0.0010   271   272   273     6
   273   -0.7071   -0.7071    0.0306    0.0102   90.0000    0.0000    0.0010   272   273   274     6
   274   -0.7071   -0.7071    0.0408    0.0102   90.0000    0.0000    0.0010   273   274   275     6
   275   -0.7071   -0.7071    0.0510    0.0102   90.0000    0.0000    0.0010   274   275   276     6
   276   -0.7071   -0.7071    0.0612    0.0102   90.0000    0.0000    0.0010   275   276   277     6
   277   -0.7071   -0.7071    0.0714    0.0102   90.0000    0.0000    0.0010   276   277   278     6
   278   -0.7071   -0.7071    0.0816    0.0102   90.0000    0.0000    0.0010   277   278   279     6
   279   -0.7071   -0.7071    0.0918    0.0102   90.0000    0.0000    0.0010   278   279   280     6
   280   -0.7071   -0.7071    0.1020    0.0102   90.0000    0.0000    0.0010   279   280   281     6
   281   -0.7071   -0.7071    0.1122    0.0102   90.0000    0.0000    0.0010   280   281   282     6
   282   -0.7071   -0.7071    0.1224    0.0102   90.0000    0.0000    0.0010   281   282   283     6
   283   -0.7071   -0.7071    0.1327    0.0102   90.0000    0.0000    0.0010   282   283   284     6
   284   -0.7071   -0.7071    0.1429    0.0102   90.0000    0.0000    0.0010   283   284   285     6
   285   -0.7071   -0.7071    0.1531    0.0102   90.0000    0.0000    0.0010   284   285   286     6
   286   -0.7071   -0.7071    0.1633    0.0102   90.0000    0.0000    0.0010   285   286   287     6
   287   -0.7071   -0.7071    0.1735    0.0102   90.0000    0.0000    0.0010   286   287   288     6
   288   -0.7071   -0.7071    0.1837    0.0102   90.0000    0.0000    0.0010   287   288   289     6
   289   -0.7071   -0.7071    0.1939    0.0102   90.0000    0.0000    0.0010   288   289   290     6
   290   -0.7071   -0.7071    0.2041    0.0102   90.0000    0.0000    0.0010   289   290   291     6
   291   -0.7071   -0.7071    0.2143    0.0102   90.0000    0.0000    0.0010   290   291   292     6
   292   -0.7071   -0.7071    0.2245    0.0102   90.0000    0.0000    0.0010   291   292   293     6
   293   -0.7071   -0.7071    0.2347    0.0102   90.0000    0.0000    0.0010   292   293   294     6
   294   -0.7071   -0.7071    0.2449    0.0102   90.0000    0.0000    0.0010   293   294     0     6
   295    0.0000   -1.0000   -0.2449    0.0102   90.0000    0.0000    0.0010     0   295   296     7
   296    0.0000   -1.0000   -0.2347    0.0102   90.0000    0.0000    0.0010   295   296   297     7
   297    0.0000   -1.0000   -0.2245    0.0102   90.0000    0.0000    0.0010   296   297   298     7
   298    0.0000   -1.0000   -0.2143    0.0102   90.0000    0.0000    0.0010   297   298   299     7
   299    0.0000   -1.0000   -0.2041    0.0102   90.0000    0.0000    0.0010   298   299   300     7
   300    0.0000   -1.0000   -0.1939    0.0102   90.0000    0.0000    0.0010   299   300   301     7
   301    0.0000   -1.0000   -0.1837    0.0102   90.0000    0.0000    0.0010   300   301   302     7
   302    0.0000   -1.0000   -0.1735    0.0102   90.0000    0.0000    0.0010   301   302   303     7
   303    0.0000   -1.0000   -0.1633    0.0102   90.0000    0.0000    0.0010   302   303   304     7
   304    0.0000   -1.0000   -0.1531    0.0102   90.0000    0.0000    0.0010   303   304   305     7
   305    0.0000   -1.0000   -0.1429    0.0102   90.0000    0.0000    0.0010   304   305   306     7
   306    0.0000   -1.0000   -0.1327    0.0102   90.0000    0.0000    0.0010   305   306   307     7
   307    0.0000   -1.0000   -0.1224    0.0102   90.0000    0.0000    0.0010   306   307   308     7
   308    0.0000   -1.0000   -0.1122    0.0102   90.0000    0.0000    0.0010   307   308   309     7
   309    0.0000   -1.0000   -0.1020    0.0102   90.0000    0.0000    0.0010   308   309   310     7
   310    0.0000   -1.0000   -0.0918    0.0102   90.0000    0.0000    0.0010   309   310   311     7
   311    0.0000   -1.0000   -0.0816    0.0102   90.0000    0.0000    0.0010   310   311   312     7
   312    0.0000   -1.0000   -0.0714    0.0102   90.0000    0.0000    0.0010   311   312   313     7
   313    0.0000   -1.0000   -0.0612    0.0102   90.0000    0.0000    0.0010   312   313   314     7
   314    0.0000   -1.0000   -0.0510    0.0102   90.0000    0.0000    0.0010   313   314   315     7
   315    0.0000   -1.0000   -0.0408    0.0102   90.0000    0.0000    0.0010   314   315   316     7
   316    0.0000   -1.0000   -0.0306    0.0102   90.0000    0.0000    0.0010   315   316   317     7
   317    0.0000   -1.0000   -0.0204    0.0102   90.0000    0.0000    0.0010   316   317   318     7
   318    0.0000   -1.0000   -0.0102    0.0102   90.0000    0.0000    0.0010   317   318   319     7
   319    0.0000   -1.0000   -0.0000    0.0102   90.0000    0.0000    0.0010   318   319   320     7
   320    0.0000   -1.0000    0.0102    0.0102   90.0000    0.0000    0.0010   319   320   321     7
   321    0.0000   -1.0000    0.0204    0.0102   90.0000    0.0000    0.0010   320   321   322     7
   322    0.0000   -1.0000    0.0306    0.0102   90.0000    0.0000    0.0010   321   322   323     7
   323    0.0000   -1.0000    0.0408    0.0102   90.0000    0.0000    0.0010   322   323   324     7
   324    0.0000   -1.0000    0.0510    0.0102   90.0000    0.0000    0.0010   323   324   325     7
   325    0.0000   -1.0000    0.0612    0.0102   90.0000    0.0000    0.0010   324   325   326     7
   326    0.0000   -1.0000    0.0714    0.0102   90.0000    0.0000    0.0010   325   326   327     7
   327    0.0000   -1.0000    0.0816    0.0102   90.0000    0.0000    0.0010   326   327   328     7
   328    0.0000   -1.0000    0.0918    0.0102   90.0000    0.0000    0.0010   327   328   329     7
   329    0.0000   -1.0000    0.1020    0.0102   90.0000    0.0000    0.0010   328   329   330     7
   330    0.0000   -1.0000    0.1122    0.0102   90.0000    0.0000    0.0010   329   330   331     7
   331    0.0000   -1.0000    0.1224    0.0102   90.0000    0.0000    0.0010   330   331   332     7
   332    0.0000   -1.0000    0.1327    0.0102   90.0000    0.0000    0.0010   331   332   333     7
   333    0.0000   -1.0000    0.1429    0.0102   90.0000    0.0000    0.0010   332   333   334     7
   334    0.0000   -1.0000    0.1531    0.0102   90.0000    0.0000    0.0010   333   334   335     7
   335    0.0000   -1.0000    0.1633    0.0102   90.0000    0.0000    0.0010   334   335   336     7
   336    0.0000   -1.0000    0.1735    0.0102   90.0000    0.0000    0.0010   335   336   337     7
   337    0.0000   -1.0000    0.1837    0.0102   90.0000    0.0000    0.0010   336   337   338     7
   338    0.0000   -1.0000    0.1939    0.0102   90.0000    0.0000    0.0010   337   338   339     7
   339    0.0000   -1.0000    0.2041    0.0102   90.0000    0.0000    0.0010   338   339   340     7
   340    0.0000   -1.0000    0.2143    0.0102   90.0000    0.0000    0.0010   339   340   341     7
   341    0.0000   -1.0000    0.2245    0.0102   90.0000    0.0000    0.0010   340   341   342     7
   342    0.0000   -1.0000    0.2347    0.0102   90.0000    0.0000    0.0010   341   342   343     7
   343    0.0000   -1.0000    0.2449    0.0102   90.0000    0.0000    0.0010   342   343     0     7
   344    0.7071   -0.7071   -0.2449    0.0102   90.0000    0.0000    0.0010     0   344   345     8
   345    0.7071   -0.7071   -0.2347    0.0102   90.0000    0.0000    0.0010   344   345   346     8
   346    0.7071   -0.7071   -0.2245    0.0102   90.0000    0.0000    0.0010   345   346   347     8
   347    0.7071   -0.7071   -0.2143    0.0102   90.0000    0.0000    0.0010   346   347   348     8
   348    0.7071   -0.7071   -0.2041    0.0102   90.0000    0.0000    0.0010   347   348   349     8
   349    0.7071   -0.7071   -0.1939    0.0102   90.0000    0.0000    0.0010   348   349   350     8
   350    0.7071   -0.7071   -0.1837    0.0102   90.0000    0.0000    0.0010   349   350   351     8
   351    0.7071   -0.7071   -0.1735    0.0102   90.0000    0.0000    0.0010   350   351   352     8
   352    0.7071   -0.7071   -0.1633    0.0102   90.0000    0.0000    0.0010   351   352   353     8
   353    0.7071   -0.7071   -0.1531    0.0102   90.0000    0.0000    0.0010   352   353   354     8
   354    0.7071   -0.7071   -0.1429    0.0102   90.0000    0.0000    0.0010   353   354   355     8
   355    0.7071   -0.7071   -0.1327    0.0102   90.0000    0.0000    0.0010   354   355   356     8
   356    0.7071   -0.7071   -0.1224    0.0102   90.0000    0.0000    0.0010   355   356   357     8
   357    0.7071   -0.7071   -0.1122    0.0102   90.0000    0.0000    0.0010   356   357   358     8
   358    0.7071   -0.7071   -0.1020    0.0102   90.0000    0.0000    0.0010   357   358   359     8
   359    0.7071   -0.7071   -0.0918    0.0102   90.0000    0.0000    0.0010   358   359   360     8
   360    0.7071   -0.7071   -0.0816    0.0102   90.0000    0.0000    0.0010   359   360   361     8
   361    0.7071   -0.7071   -0.0714    0.0102   90.0000    0.0000    0.0010   360   361   362     8
   362    0.7071   -0.7071   -0.0612    0.0102   90.0000    0.0000    0.0010   361   362   363     8
   363    0.7071   -0.7071   -0.0510    0.0102   90.0000    0.0000    0.0010   362   363   364     8
   364    0.7071   -0.7071   -0.0408    0.0102   90.0000    0.0000    0.0010   363   364   365     8
   365    0.7071   -0.7071   -0.0306    0.0102   90.0000    0.0000    0.0010   364   365   366     8
   366    0.7071   -0.7071   -0.0204    0.0102   90.0000    0.0000    0.0010   365   366   367     8
   367    0.7071   -0.7071   -0.0102    0.0102   90.0000    0.0000    0.0010   366   367   368     8
   368    0.7071   -0.7071   -0.0000    0.0102   90.0000    0.0000    0.0010   367   368   369     8
   369    0.7071   -0.7071    0.0102    0.0102   90.0000    0.0000    0.0010   368   369   370     8
   370    0.7071   -0.7071    0.0204    0.0102   90.0000    0.0000    0.0010   369   370   371     8
   371    0.7071   -0.7071    0.0306    0.0102   90.0000    0.0000    0.0010   370   371   372     8
   372    0.7071   -0.7071    0.0408    0.0102   90.0000    0.0000    0.0010   371   372   373     8
   373    0.7071   -0.7071    0.0510    0.0102   90.0000    0.0000    0.0010   372   373   374     8
   374    0.7071   -0.7071    0.0612    0.0102   90.0000    0.0000    0.0010   373   374   375     8
   375    0.7071   -0.7071    0.0714    0.0102   90.0000    0.0000    0.0010   374   375   376     8
   376    0.7071   -0.7071    0.0816    0.0102   90.0000    0.0000    0.0010   375   376   377     8
   377    0.7071   -0.7071    0.0918    0.0102   90.0000    0.0000    0.0010   376   377   378     8
   378    0.7071   -0.7071    0.1020    0.0102   90.0000    0.0000    0.0010   377   378   379     8
   379    0.7071   -0.7071    0.1122    0.0102   90.0000    0.0000    0.0010   378   379   380     8
   380    0.7071   -0.7071    0.1224    0.0102   90.0000    0.0000    0.0010   379   380   381     8
   381    0.7071   -0.7071    0.1327    0.0102   90.0000    0.0000    0.0010   380   381   382     8
   382    0.7071   -0.7071    0.1429    0.0102   90.0000    0.0000    0.0010   381   382   383     8
   383    0.7071   -0.7071    0.1531    0.0102   90.0000    0.0000    0.0010   382   383   384     8
   384    0.7071   -0.7071    0.1633    0.0102   90.0000    0.0000    0.0010   383   384   385     8
   385    0.7071   -0.7071    0.1735    0.0102   90.0000    0.0000    0.0010   384   385   386     8
   386    0.7071   -0.7071    0.1837    0.0102   90.0000    0.0000    0.0010   385   386   387     8
   387    0.7071   -0.7071    0.1939    0.0102   90.0000    0.0000    0.0010   386   387   388     8
   388    0.7071   -0.7071    0.2041    0.0102   90.0000    0.0000    0.0010   387   388   389     8
   389    0.7071   -0.7071    0.2143    0.0102   90.0000    0.0000    0.0010   388   389   390     8
   390    0.7071   -0.7071    0.2245    0.0102   90.0000    0.0000    0.0010   389   390   391     8
   391    0.7071   -0.7071    0.2347    0.0102   90.0000    0.0000    0.0010   390   391   392     8
   392    0.7071   -0.7071    0.2449    0.0102   90.0000    0.0000    0.0010   391   392     0     8



  DATA CARD No:   1 EX   0     1    25     0  1.00000E+00 -1.00000E+00  0.00000E+00  0.00000E+00  0.00000E+00  0.00000E+00
  DATA CARD No:   2 EX   0     2    25     0  1.00000E+00 -9.98000E-01  0.00000E+00  0.00000E+00  0.00000E+00  0.00000E+00
  DATA CARD No:   3 EX   0     3    25     0  1.00000E+00 -9.92100E-01  0.00000E+00  0.00000E+00  0.00000E+00  0.00000E+00
  DATA CARD No:   4 EX   0     4    25     0  1.00000E+00 -9.82300E-01  0.00000E+00  0.00000E+00  0.00000E+00  0.00000E+00
  DATA CARD No:   5 EX   0     5    25     0  1.00000E+00 -9.68600E-01  0.00000E+00  0.00000E+00  0.00000E+00  0.00000E+00
  DATA CARD No:   6 EX   0     6    25     0  1.00000E+00 -9.51100E-01  0.00000E+00  0.00000E+00  0.00000E+00  0.00000E+00
  DATA CARD No:   7 EX   0     7    25     0  1.00000E+00 -9.29800E-01  0.00000E+00  0.00000E+00  0.00000E+00  0.00000E+00
  DATA CARD No:   8 EX   0     8    25     0  1.00000E+00 -9.04800E-01  0.00000E+00  0.00000E+00  0.00000E+00  0.00000E+00
  DATA CARD No:   9 RP   0   361     1  1010  0.00000E+00  0.00000E+00  5.00000E-01  0.00000E+00  0.00000E+00  0.00000E+00


                               --------- FREQUENCY --------
                                FREQUENCY : 2.9980E+02 MHz
                                WAVELENGTH: 1.0000E+00 Mtr

                        APPROXIMATE INTEGRATION EMPLOYED FOR SEGMENTS 
                        THAT ARE MORE THAN 1.000 WAVELENGTHS APART


                          ------ STRUCTURE IMPEDANCE LOADING ------
                                 THIS STRUCTURE IS NOT LOADED


                            -------- ANTENNA ENVIRONMENT --------
                            FREE SPACE


                             ---------- MATRIX TIMING ----------
                               FILL: 140 msec  FACTOR: 250 msec


                        --------- ANTENNA INPUT PARAMETERS ---------
  TAG   SEG       VOLTAGE (VOLTS)         CURRENT (AMPS)         IMPEDANCE (OHMS)        ADMITTANCE (MHOS)     POWER
  No:   No:     REAL      IMAGINARY     REAL      IMAGINARY     REAL      IMAGINARY    REAL       IMAGINARY   (WATTS)
    1    25  1.0000E+00 -1.0000E+00 -6.2422E-03 -1.6444E-02  3.2976E+01  7.3332E+01  5.1007E-03 -1.1343E-02  5.1007E-03
    2    74  1.0000E+00 -9.9800E-01 -6.4298E-03 -1.6495E-02  3.2008E+01  7.3101E+01  5.0262E-03 -1.1479E-02  5.0162E-03
    3   123  1.0000E+00 -9.9210E-01 -6.3222E-03 -1.6524E-02  3.2175E+01  7.2829E+01  5.0756E-03 -1.1488E-02  5.0356E-03
    4   172  1.0000E+00 -9.8230E-01 -6.2644E-03 -1.6454E-02  3.1933E+01  7.2935E+01  5.0374E-03 -1.1505E-02  4.9490E-03
    5   221  1.0000E+00 -9.6860E-01 -6.1337E-03 -1.6159E-02  3.1861E+01  7.3980E+01  4.9106E-03 -1.1402E-02  4.7588E-03
    6   270  1.0000E+00 -9.5110E-01 -6.0142E-03 -1.5969E-02  3.1506E+01  7.4488E+01  4.8167E-03 -1.1388E-02  4.5869E-03
    7   319  1.0000E+00 -9.2980E-01 -5.7702E-03 -1.5825E-02  3.1523E+01  7.4686E+01  4.7968E-03 -1.1365E-02  4.4719E-03
    8   368  1.0000E+00 -9.0480E-01 -5.8031E-03 -1.5674E-02  2.9994E+01  7.4907E+01  4.6069E-03 -1.1505E-02  4.1892E-03


                           -------- CURRENTS AND LOCATION --------
                                  DISTANCES IN WAVELENGTHS

   SEG  TAG    COORDINATES OF SEGM CENTER     SEGM    ------------- CURRENT (AMPS) -------------
   No:  No:       X         Y         Z      LENGTH     REAL      IMAGINARY    MAGN        PHASE
     1    1    1.0000    0.0000   -0.2449   0.01020 -4.6940E-04 -1.0616E-03  1.1607E-03 -113.853
     2    1    1.0000    0.0000   -0.2347   0.01020 -1.0943E-03 -2.4824E-03  2.7129E-03 -113.789
     3    1    1.0000    0.0000   -0.2245   0.01020 -1.6366E-03 -3.7246E-03  4.0683E-03 -113.721
     4    1    1.0000    0.0000   -0.2143   0.01020 -2.1440E-03 -4.8952E-03  5.3442E-03 -113.652
     5    1    1.0000    0.0000   -0.2041   0.01020 -2.6233E-03 -6.0098E-03  6.5574E-03 -113.581
     6    1    1.0000    0.0000   -0.1939   0.01020 -3.0773E-03 -7.0745E-03  7.7148E-03 -113.508
     7    1    1.0000    0.0000   -0.1837   0.01020 -3.5069E-03 -8.0915E-03  8.8188E-03 -113.432
     8    1    1.0000    0.0000   -0.1735   0.01020 -3.9122E-03 -9.0607E-03  9.8692E-03 -113.354
     9    1    1.0000    0.0000   -0.1633   0.01020 -4.2927E-03 -9.9811E-03  1.0865E-02 -113.272
    10    1    1.0000    0.0000   -0.1531   0.01020 -4.6477E-03 -1.0851E-02  1.1805E-02 -113.186
    11    1    1.0000    0.0000   -0.1429   0.01020 -4.9765E-03 -1.1669E-02  1.2686E-02 -113.097
    12    1    1.0000    0.0000   -0.1327   0.01020 -5.2780E-03 -1.2432E-02  1.3506E-02 -113.003
    13    1    1.0000    0.0000   -0.1224   0.01020 -5.5515E-03 -1.3139E-02  1.4264E-02 -112.905
    14    1    1.0000    0.0000   -0.1122   0.01020 -5.7959E-03 -1.3788E-02  1.4956E-02 -112.800
    15    1    1.0000    0.0000   -0.1020   0.01020 -6.0104E-03 -1.4375E-02  1.5581E-02 -112.690
    16    1    1.0000    0.0000   -0.0918   0.01020 -6.1940E-03 -1.4900E-02  1.6136E-02 -112.573
    17    1    1.0000    0.0000   -0.0816   0.01020 -6.3460E-03 -1.5360E-02  1.6620E-02 -112.447
    18    1    1.0000    0.0000   -0.0714   0.01020 -6.4655E-03 -1.5754E-02  1.7029E-02 -112.313
    19    1    1.0000    0.0000   -0.0612   0.01020 -6.5514E-03 -1.6080E-02  1.7363E-02 -112.167
    20    1    1.0000    0.0000   -0.0510   0.01020 -6.6027E-03 -1.6335E-02  1.7619E-02 -112.008
    21    1    1.0000    0.0000   -0.0408   0.01020 -6.6181E-03 -1.6519E-02  1.7795E-02 -111.833
    22    1    1.0000    0.0000   -0.0306   0.01020 -6.5953E-03 -1.6627E-02  1.7888E-02 -111.636
    23    1    1.0000    0.0000   -0.0204   0.01020 -6.5305E-03 -1.6656E-02  1.7891E-02 -111.409
    24    1    1.0000    0.0000   -0.0102   0.01020 -6.4075E-03 -1.6590E-02  1.7784E-02 -111.118
    25    1    1.0000    0.0000   -0.0000   0.01020 -6.2422E-03 -1.6444E-02  1.7589E-02 -110.787
    26    1    1.0000    0.0000    0.0102   0.01020 -6.4075E-03 -1.6590E-02  1.7784E-02 -111.118
    27    1    1.0000    0.0000    0.0204   0.01020 -6.5305E-03 -1.6656E-02  1.7891E-02 -111.409
    28    1    1.0000    0.0000    0.0306   0.01020 -6.5953E-03 -1.6627E-02  1.7888E-02 -111.636
    29    1    1.0000    0.0000    0.0408   0.01020 -6.6181E-03 -1.6519E-02  1.7795E-02 -111.833
    30    1    1.0000    0.0000    0.0510   0.01020 -6.6027E-03 -1.6335E-02  1.7619E-02 -112.008
    31    1    1.0000    0.0000    0.0612   0.01020 -6.5514E-03 -1.6080E-02  1.7363E-02 -112.167
    32    1    1.0000    0.0000    0.0714   0.01020 -6.4655E-03 -1.5754E-02  1.7029E-02 -112.313
    33    1    1.0000    0.0000    0.0816   0.01020 -6.3460E-03 -1.5360E-02  1.6620E-02 -112.447
    34    1    1.0000    0.0000    0.0918   0.01020 -6.1940E-03 -1.4900E-02  1.6136E-02 -112.573
    35    1    1.0000    0.0000    0.1020   0.01020 -6.0104E-03 -1.4375E-02  1.5581E-02 -112.690
    36    1    1.0000    0.0000    0.1122   0.01020 -5.7959E-03 -1.3788E-02  1.4956E-02 -112.800
    37    1    1.0000    0.0000    0.1224   0.01020 -5.5515E-03 -1.3139E-02  1.4264E-02 -112.905
    38    1    1.0000    0.0000    0.1327   0.01020 -5.2780E-03 -1.2432E-02  1.3506E-02 -113.003
    39    1    1.0000    0.0000    0.1429   0.01020 -4.9765E-03 -1.1669E-02  1.2686E-02 -113.097
    40    1    1.0000    0.0000    0.1531   0.01020 -4.6477E-03 -1.0851E-02  1.1805E-02 -113.186
    41    1    1.0000    0.0000    0.1633   0.01020 -4.2927E-03 -9.9811E-03  1.0865E-02 -113.272
    42    1    1.0000    0.0000    0.1735   0.01020 -3.9122E-03 -9.0607E-03  9.8692E-03 -113.354
    43    1    1.0000    0.0000    0.1837   0.01020 -3.5069E-03 -8.0915E-03  8.8188E-03 -113.432
    44    1    1.0000    0.0000    0.1939   0.01020 -3.0773E-03 -7.0745E-03  7.7148E-03 -113.508
    45    1    1.0000    0.0000    0.2041   0.01020 -2.6233E-03 -6.0098E-03  6.5574E-03 -113.581
    46    1    1.0000    0.0000    0.2143   0.01020 -2.1440E-03 -4.8952E-03  5.3442E-03 -113.652
    47    1    1.0000    0.0000    0.2245   0.01020 -1.6366E-03 -3.7246E-03  4.0683E-03 -113.721
    48    1    1.0000    0.0000    0.2347   0.01020 -1.0943E-03 -2.4824E-03  2.7129E-03 -113.789
    49    1    1.0000    0.0000    0.2449   0.01020 -4.6940E-04 -1.0616E-03  1.1607E-03 -113.853
    50    2    0.7071    0.7071   -0.2449   0.01020 -4.8001E-04 -1.0646E-03  1.1679E-03 -114.269
    51    2    0.7071    0.7071   -0.2347   0.01020 -1.1192E-03 -2.4895E-03  2.7295E-03 -114.206
    52    2    0.7071    0.7071   -0.2245   0.01020 -1.6741E-03 -3.7353E-03  4.0933E-03 -114.141
    53    2    0.7071    0.7071   -0.2143   0.01020 -2.1934E-03 -4.9093E-03  5.3771E-03 -114.075
    54    2    0.7071    0.7071   -0.2041   0.01020 -2.6842E-03 -6.0271E-03  6.5978E-03 -114.006
    55    2    0.7071    0.7071   -0.1939   0.01020 -3.1493E-03 -7.0950E-03  7.7625E-03 -113.935
    56    2    0.7071    0.7071   -0.1837   0.01020 -3.5896E-03 -8.1149E-03  8.8733E-03 -113.862
    57    2    0.7071    0.7071   -0.1735   0.01020 -4.0051E-03 -9.0869E-03  9.9304E-03 -113.786
    58    2    0.7071    0.7071   -0.1633   0.01020 -4.3954E-03 -1.0010E-02  1.0933E-02 -113.706
    59    2    0.7071    0.7071   -0.1531   0.01020 -4.7599E-03 -1.0883E-02  1.1878E-02 -113.624
    60    2    0.7071    0.7071   -0.1429   0.01020 -5.0975E-03 -1.1703E-02  1.2765E-02 -113.537
    61    2    0.7071    0.7071   -0.1327   0.01020 -5.4076E-03 -1.2469E-02  1.3591E-02 -113.446
    62    2    0.7071    0.7071   -0.1224   0.01020 -5.6890E-03 -1.3178E-02  1.4353E-02 -113.350
    63    2    0.7071    0.7071   -0.1122   0.01020 -5.9408E-03 -1.3828E-02  1.5050E-02 -113.249
    64    2    0.7071    0.7071   -0.1020   0.01020 -6.1622E-03 -1.4418E-02  1.5679E-02 -113.142
    65    2    0.7071    0.7071   -0.0918   0.01020 -6.3523E-03 -1.4944E-02  1.6238E-02 -113.029
    66    2    0.7071    0.7071   -0.0816   0.01020 -6.5100E-03 -1.5406E-02  1.6725E-02 -112.907
    67    2    0.7071    0.7071   -0.0714   0.01020 -6.6346E-03 -1.5801E-02  1.7138E-02 -112.776
    68    2    0.7071    0.7071   -0.0612   0.01020 -6.7251E-03 -1.6128E-02  1.7474E-02 -112.635
    69    2    0.7071    0.7071   -0.0510   0.01020 -6.7803E-03 -1.6385E-02  1.7732E-02 -112.481
    70    2    0.7071    0.7071   -0.0408   0.01020 -6.7990E-03 -1.6569E-02  1.7910E-02 -112.311
    71    2    0.7071    0.7071   -0.0306   0.01020 -6.7789E-03 -1.6678E-02  1.8003E-02 -112.120
    72    2    0.7071    0.7071   -0.0204   0.01020 -6.7160E-03 -1.6708E-02  1.8007E-02 -111.899
    73    2    0.7071    0.7071   -0.0102   0.01020 -6.5943E-03 -1.6641E-02  1.7900E-02 -111.616
    74    2    0.7071    0.7071   -0.0000   0.01020 -6.4298E-03 -1.6495E-02  1.7704E-02 -111.296
    75    2    0.7071    0.7071    0.0102   0.01020 -6.5943E-03 -1.6641E-02  1.7900E-02 -111.616
    76    2    0.7071    0.7071    0.0204   0.01020 -6.7160E-03 -1.6708E-02  1.8007E-02 -111.899
    77    2    0.7071    0.7071    0.0306   0.01020 -6.7789E-03 -1.6678E-02  1.8003E-02 -112.120
    78    2    0.7071    0.7071    0.0408   0.01020 -6.7990E-03 -1.6569E-02  1.7910E-02 -112.311
    79    2    0.7071    0.7071    0.0510   0.01020 -6.7803E-03 -1.6385E-02  1.7732E-02 -112.481
    80    2    0.7071    0.7071    0.0612   0.01020 -6.7251E-03 -1.6128E-02  1.7474E-02 -112.635
    81    2    0.7071    0.7071    0.0714   0.01020 -6.6346E-03 -1.5801E-02  1.7138E-02 -112.776
    82    2    0.7071    0.7071    0.0816   0.01020 -6.5100E-03 -1.5406E-02  1.6725E-02 -112.907
    83    2    0.7071    0.7071    0.0918   0.01020 -6.3523E-03 -1.4944E-02  1.6238E-02 -113.029
    84    2    0.7071    0.7071    0.1020   0.01020 -6.1622E-03 -1.4418E-02  1.5679E-02 -113.142
    85    2    0.7071    0.7071    0.1122   0.01020 -5.9408E-03 -1.3828E-02  1.5050E-02 -113.249
    86    2    0.7071    0.7071    0.1224   0.01020 -5.6890E-03 -1.3178E-02  1.4353E-02 -113.350
    87    2    0.7071    0.7071    0.1327   0.01020 -5.4076E-03 -1.2469E-02  1.3591E-02 -113.446
    88    2    0.7071    0.7071    0.1429   0.01020 -5.0975E-03 -1.1703E-02  1.2765E-02 -113.537
    89    2    0.7071    0.7071    0.1531   0.01020 -4.7599E-03 -1.0883E-02  1.1878E-02 -113.624
    90    2    0.7071    0.7071    0.1633   0.01020 -4.3954E-03 -1.0010E-02  1.0933E-02 -113.706
    91    2    0.7071    0.7071    0.1735   0.01020 -4.0051E-03 -9.0869E-03  9.9304E-03 -113.786
    92    2    0.7071    0.7071    0.1837   0.01020 -3.5896E-03 -8.1149E-03  8.8733E-03 -113.862
    93    2    0.7071    0.7071    0.1939   0.01020 -3.1493E-03 -7.0950E-03  7.7625E-03 -113.935
    94    2    0.7071    0.7071    0.2041   0.01020 -2.6842E-03 -6.0271E-03  6.5978E-03 -114.006
    95    2    0.7071    0.7071    0.2143   0.01020 -2.1934E-03 -4.9093E-03  5.3771E-03 -114.075
    96    2    0.7071    0.7071    0.2245   0.01020 -1.6741E-03 -3.7353E-03  4.0933E-03 -114.141
    97    2    0.7071    0.7071    0.2347   0.01020 -1.1192E-03 -2.4895E-03  2.7295E-03 -114.206
    98    2    0.7071    0.7071    0.2449   0.01020 -4.8001E-04 -1.0646E-03  1.1679E-03 -114.269
    99    3    0.0000    1.0000   -0.2449   0.01020 -4.7312E-04 -1.0662E-03  1.1665E-03 -113.928
   100    3    0.0000    1.0000   -0.2347   0.01020 -1.1031E-03 -2.4933E-03  2.7264E-03 -113.865
   101    3    0.0000    1.0000   -0.2245   0.01020 -1.6499E-03 -3.7410E-03  4.0887E-03 -113.800
   102    3    0.0000    1.0000   -0.2143   0.01020 -2.1617E-03 -4.9169E-03  5.3711E-03 -113.732
   103    3    0.0000    1.0000   -0.2041   0.01020 -2.6452E-03 -6.0364E-03  6.5905E-03 -113.663
   104    3    0.0000    1.0000   -0.1939   0.01020 -3.1033E-03 -7.1059E-03  7.7540E-03 -113.592
   105    3    0.0000    1.0000   -0.1837   0.01020 -3.5370E-03 -8.1275E-03  8.8638E-03 -113.518
   106    3    0.0000    1.0000   -0.1735   0.01020 -3.9462E-03 -9.1012E-03  9.9199E-03 -113.441
   107    3    0.0000    1.0000   -0.1633   0.01020 -4.3306E-03 -1.0026E-02  1.0921E-02 -113.362
   108    3    0.0000    1.0000   -0.1531   0.01020 -4.6894E-03 -1.0900E-02  1.1866E-02 -113.278
   109    3    0.0000    1.0000   -0.1429   0.01020 -5.0217E-03 -1.1722E-02  1.2752E-02 -113.191
   110    3    0.0000    1.0000   -0.1327   0.01020 -5.3267E-03 -1.2489E-02  1.3577E-02 -113.100
   111    3    0.0000    1.0000   -0.1224   0.01020 -5.6035E-03 -1.3199E-02  1.4339E-02 -113.003
   112    3    0.0000    1.0000   -0.1122   0.01020 -5.8512E-03 -1.3850E-02  1.5036E-02 -112.902
   113    3    0.0000    1.0000   -0.1020   0.01020 -6.0687E-03 -1.4441E-02  1.5664E-02 -112.794
   114    3    0.0000    1.0000   -0.0918   0.01020 -6.2553E-03 -1.4969E-02  1.6223E-02 -112.680
   115    3    0.0000    1.0000   -0.0816   0.01020 -6.4100E-03 -1.5431E-02  1.6710E-02 -112.557
   116    3    0.0000    1.0000   -0.0714   0.01020 -6.5320E-03 -1.5828E-02  1.7122E-02 -112.426
   117    3    0.0000    1.0000   -0.0612   0.01020 -6.6203E-03 -1.6155E-02  1.7459E-02 -112.284
   118    3    0.0000    1.0000   -0.0510   0.01020 -6.6738E-03 -1.6412E-02  1.7717E-02 -112.129
   119    3    0.0000    1.0000   -0.0408   0.01020 -6.6912E-03 -1.6597E-02  1.7895E-02 -111.958
   120    3    0.0000    1.0000   -0.0306   0.01020 -6.6703E-03 -1.6706E-02  1.7989E-02 -111.765
   121    3    0.0000    1.0000   -0.0204   0.01020 -6.6072E-03 -1.6736E-02  1.7993E-02 -111.543
   122    3    0.0000    1.0000   -0.0102   0.01020 -6.4859E-03 -1.6670E-02  1.7887E-02 -111.260
   123    3    0.0000    1.0000   -0.0000   0.01020 -6.3222E-03 -1.6524E-02  1.7692E-02 -110.937
   124    3    0.0000    1.0000    0.0102   0.01020 -6.4859E-03 -1.6670E-02  1.7887E-02 -111.260
   125    3    0.0000    1.0000    0.0204   0.01020 -6.6072E-03 -1.6736E-02  1.7993E-02 -111.543
   126    3    0.0000    1.0000    0.0306   0.01020 -6.6703E-03 -1.6706E-02  1.7989E-02 -111.765
   127    3    0.0000    1.0000    0.0408   0.01020 -6.6912E-03 -1.6597E-02  1.7895E-02 -111.958
   128    3    0.0000    1.0000    0.0510   0.01020 -6.6738E-03 -1.6412E-02  1.7717E-02 -112.129
   129    3    0.0000    1.0000    0.0612   0.01020 -6.6203E-03 -1.6155E-02  1.7459E-02 -112.284
   130    3    0.0000    1.0000    0.0714   0.01020 -6.5320E-03 -1.5828E-02  1.7122E-02 -112.426
   131    3    0.0000    1.0000    0.0816   0.01020 -6.4100E-03 -1.5431E-02  1.6710E-02 -112.557
   132    3    0.0000    1.0000    0.0918   0.01020 -6.2553E-03 -1.4969E-02  1.6223E-02 -112.680
   133    3    0.0000    1.0000    0.1020   0.01020 -6.0687E-03 -1.4441E-02  1.5664E-02 -112.794
   134    3    0.0000    1.0000    0.1122   0.01020 -5.8512E-03 -1.3850E-02  1.5036E-02 -112.902
   135    3    0.0000    1.0000    0.1224   0.01020 -5.6035E-03 -1.3199E-02  1.4339E-02 -113.003
   136    3    0.0000    1.0000    0.1327   0.01020 -5.3267E-03 -1.2489E-02  1.3577E-02 -113.100
   137    3    0.0000    1.0000    0.1429   0.01020 -5.0217E-03 -1.1722E-02  1.2752E-02 -113.191
   138    3    0.0000    1.0000    0.1531   0.01020 -4.6894E-03 -1.0900E-02  1.1866E-02 -113.278
   139    3    0.0000    1.0000    0.1633   0.01020 -4.3306E-03 -1.0026E-02  1.0921E-02 -113.362
   140    3    0.0000    1.0000    0.1735   0.01020 -3.9462E-03 -9.1012E-03  9.9199E-03 -113.441
   141    3    0.0000    1.0000    0.1837   0.01020 -3.5370E-03 -8.1275E-03  8.8638E-03 -113.518
   142    3    0.0000    1.0000    0.1939   0.01020 -3.1033E-03 -7.1059E-03  7.7540E-03 -113.592
   143    3    0.0000    1.0000    0.2041   0.01020 -2.6452E-03 -6.0364E-03  6.5905E-03 -113.663
   144    3    0.0000    1.0000    0.2143   0.01020 -2.1617E-03 -4.9169E-03  5.3711E-03 -113.732
   145    3    0.0000    1.0000    0.2245   0.01020 -1.6499E-03 -3.7410E-03  4.0887E-03 -113.800
   146    3    0.0000    1.0000    0.2347   0.01020 -1.1031E-03 -2.4933E-03  2.7264E-03 -113.865
   147    3    0.0000    1.0000    0.2449   0.01020 -4.7312E-04 -1.0662E-03  1.1665E-03 -113.928
   148    4   -0.7071    0.7071   -0.2449   0.01020 -4.6869E-04 -1.0622E-03  1.1610E-03 -113.809
   149    4   -0.7071    0.7071   -0.2347   0.01020 -1.0927E-03 -2.4838E-03  2.7136E-03 -113.747
   150    4   -0.7071    0.7071   -0.2245   0.01020 -1.6345E-03 -3.7267E-03  4.0694E-03 -113.682
   151    4   -0.7071    0.7071   -0.2143   0.01020 -2.1415E-03 -4.8981E-03  5.3457E-03 -113.615
   152    4   -0.7071    0.7071   -0.2041   0.01020 -2.6205E-03 -6.0132E-03  6.5594E-03 -113.547
   153    4   -0.7071    0.7071   -0.1939   0.01020 -3.0744E-03 -7.0786E-03  7.7174E-03 -113.476
   154    4   -0.7071    0.7071   -0.1837   0.01020 -3.5040E-03 -8.0961E-03  8.8219E-03 -113.403
   155    4   -0.7071    0.7071   -0.1735   0.01020 -3.9095E-03 -9.0659E-03  9.8729E-03 -113.327
   156    4   -0.7071    0.7071   -0.1633   0.01020 -4.2903E-03 -9.9868E-03  1.0869E-02 -113.248
   157    4   -0.7071    0.7071   -0.1531   0.01020 -4.6457E-03 -1.0857E-02  1.1810E-02 -113.166
   158    4   -0.7071    0.7071   -0.1429   0.01020 -4.9750E-03 -1.1676E-02  1.2691E-02 -113.079
   159    4   -0.7071    0.7071   -0.1327   0.01020 -5.2773E-03 -1.2439E-02  1.3513E-02 -112.989
   160    4   -0.7071    0.7071   -0.1224   0.01020 -5.5516E-03 -1.3147E-02  1.4271E-02 -112.893
   161    4   -0.7071    0.7071   -0.1122   0.01020 -5.7969E-03 -1.3796E-02  1.4964E-02 -112.792
   162    4   -0.7071    0.7071   -0.1020   0.01020 -6.0125E-03 -1.4384E-02  1.5590E-02 -112.686
   163    4   -0.7071    0.7071   -0.0918   0.01020 -6.1974E-03 -1.4909E-02  1.6146E-02 -112.572
   164    4   -0.7071    0.7071   -0.0816   0.01020 -6.3508E-03 -1.5369E-02  1.6630E-02 -112.451
   165    4   -0.7071    0.7071   -0.0714   0.01020 -6.4717E-03 -1.5764E-02  1.7040E-02 -112.320
   166    4   -0.7071    0.7071   -0.0612   0.01020 -6.5592E-03 -1.6089E-02  1.7375E-02 -112.179
   167    4   -0.7071    0.7071   -0.0510   0.01020 -6.6123E-03 -1.6345E-02  1.7632E-02 -112.026
   168    4   -0.7071    0.7071   -0.0408   0.01020 -6.6296E-03 -1.6529E-02  1.7809E-02 -111.856
   169    4   -0.7071    0.7071   -0.0306   0.01020 -6.6090E-03 -1.6637E-02  1.7902E-02 -111.665
   170    4   -0.7071    0.7071   -0.0204   0.01020 -6.5465E-03 -1.6666E-02  1.7906E-02 -111.445
   171    4   -0.7071    0.7071   -0.0102   0.01020 -6.4265E-03 -1.6600E-02  1.7801E-02 -111.163
   172    4   -0.7071    0.7071   -0.0000   0.01020 -6.2644E-03 -1.6454E-02  1.7606E-02 -110.843
   173    4   -0.7071    0.7071    0.0102   0.01020 -6.4265E-03 -1.6600E-02  1.7801E-02 -111.163
   174    4   -0.7071    0.7071    0.0204   0.01020 -6.5465E-03 -1.6666E-02  1.7906E-02 -111.445
   175    4   -0.7071    0.7071    0.0306   0.01020 -6.6090E-03 -1.6637E-02  1.7902E-02 -111.665
   176    4   -0.7071    0.7071    0.0408   0.01020 -6.6296E-03 -1.6529E-02  1.7809E-02 -111.856
   177    4   -0.7071    0.7071    0.0510   0.01020 -6.6123E-03 -1.6345E-02  1.7632E-02 -112.026
   178    4   -0.7071    0.7071    0.0612   0.01020 -6.5592E-03 -1.6089E-02  1.7375E-02 -112.179
   179    4   -0.7071    0.7071    0.0714   0.01020 -6.4717E-03 -1.5764E-02  1.7040E-02 -112.320
   180    4   -0.7071    0.7071    0.0816   0.01020 -6.3508E-03 -1.5369E-02  1.6630E-02 -112.451
   181    4   -0.7071    0.7071    0.0918   0.01020 -6.1974E-03 -1.4909E-02  1.6146E-02 -112.572
   182    4   -0.7071    0.7071    0.1020   0.01020 -6.0125E-03 -1.4384E-02  1.5590E-02 -112.686
   183    4   -0.7071    0.7071    0.1122   0.01020 -5.7969E-03 -1.3796E-02  1.4964E-02 -112.792
   184    4   -0.7071    0.7071    0.1224   0.01020 -5.5516E-03 -1.3147E-02  1.4271E-02 -112.893
   185    4   -0.7071    0.7071    0.1327   0.01020 -5.2773E-03 -1.2439E-02  1.3513E-02 -112.989
   186    4   -0.7071    0.7071    0.1429   0.01020 -4.9750E-03 -1.1676E-02  1.2691E-02 -113.079
   187    4   -0.7071    0.7071    0.1531   0.01020 -4.6457E-03 -1.0857E-02  1.1810E-02 -113.166
   188    4   -0.7071    0.7071    0.1633   0.01020 -4.2903E-03 -9.9868E-03  1.0869E-02 -113.248
   189    4   -0.7071    0.7071    0.1735   0.01020 -3.9095E-03 -9.0659E-03  9.8729E-03 -113.327
   190    4   -0.7071    0.7071    0.1837   0.01020 -3.5040E-03 -8.0961E-03  8.8219E-03 -113.403
   191    4   -0.7071    0.7071    0.1939   0.01020 -3.0744E-03 -7.0786E-03  7.7174E-03 -113.476
   192    4   -0.7071    0.7071    0.2041   0.01020 -2.6205E-03 -6.0132E-03  6.5594E-03 -113.547
   193    4   -0.7071    0.7071    0.2143   0.01020 -2.1415E-03 -4.8981E-03  5.3457E-03 -113.615
   194    4   -0.7071    0.7071    0.2245   0.01020 -1.6345E-03 -3.7267E-03  4.0694E-03 -113.682
   195    4   -0.7071    0.7071    0.2347   0.01020 -1.0927E-03 -2.4838E-03  2.7136E-03 -113.747
   196    4   -0.7071    0.7071    0.2449   0.01020 -4.6869E-04 -1.0622E-03  1.1610E-03 -113.809
   197    5   -1.0000    0.0000   -0.2449   0.01020 -4.5975E-04 -1.0452E-03  1.1419E-03 -113.743
   198    5   -1.0000    0.0000   -0.2347   0.01020 -1.0718E-03 -2.4439E-03  2.6687E-03 -113.681
   199    5   -1.0000    0.0000   -0.2245   0.01020 -1.6032E-03 -3.6668E-03  4.0019E-03 -113.616
   200    5   -1.0000    0.0000   -0.2143   0.01020 -2.1003E-03 -4.8190E-03  5.2568E-03 -113.550
   201    5   -1.0000    0.0000   -0.2041   0.01020 -2.5700E-03 -5.9158E-03  6.4500E-03 -113.481
   202    5   -1.0000    0.0000   -0.1939   0.01020 -3.0150E-03 -6.9636E-03  7.5882E-03 -113.411
   203    5   -1.0000    0.0000   -0.1837   0.01020 -3.4362E-03 -7.9641E-03  8.6738E-03 -113.338
   204    5   -1.0000    0.0000   -0.1735   0.01020 -3.8336E-03 -8.9176E-03  9.7067E-03 -113.262
   205    5   -1.0000    0.0000   -0.1633   0.01020 -4.2068E-03 -9.8229E-03  1.0686E-02 -113.184
   206    5   -1.0000    0.0000   -0.1531   0.01020 -4.5551E-03 -1.0679E-02  1.1609E-02 -113.101
   207    5   -1.0000    0.0000   -0.1429   0.01020 -4.8777E-03 -1.1483E-02  1.2476E-02 -113.015
   208    5   -1.0000    0.0000   -0.1327   0.01020 -5.1737E-03 -1.2233E-02  1.3282E-02 -112.925
   209    5   -1.0000    0.0000   -0.1224   0.01020 -5.4423E-03 -1.2928E-02  1.4027E-02 -112.830
   210    5   -1.0000    0.0000   -0.1122   0.01020 -5.6825E-03 -1.3565E-02  1.4707E-02 -112.729
   211    5   -1.0000    0.0000   -0.1020   0.01020 -5.8934E-03 -1.4142E-02  1.5321E-02 -112.623
   212    5   -1.0000    0.0000   -0.0918   0.01020 -6.0743E-03 -1.4657E-02  1.5866E-02 -112.510
   213    5   -1.0000    0.0000   -0.0816   0.01020 -6.2241E-03 -1.5109E-02  1.6341E-02 -112.389
   214    5   -1.0000    0.0000   -0.0714   0.01020 -6.3422E-03 -1.5495E-02  1.6743E-02 -112.259
   215    5   -1.0000    0.0000   -0.0612   0.01020 -6.4274E-03 -1.5814E-02  1.7070E-02 -112.119
   216    5   -1.0000    0.0000   -0.0510   0.01020 -6.4789E-03 -1.6064E-02  1.7321E-02 -111.965
   217    5   -1.0000    0.0000   -0.0408   0.01020 -6.4952E-03 -1.6242E-02  1.7493E-02 -111.796
   218    5   -1.0000    0.0000   -0.0306   0.01020 -6.4743E-03 -1.6347E-02  1.7583E-02 -111.606
   219    5   -1.0000    0.0000   -0.0204   0.01020 -6.4123E-03 -1.6374E-02  1.7585E-02 -111.386
   220    5   -1.0000    0.0000   -0.0102   0.01020 -6.2936E-03 -1.6306E-02  1.7478E-02 -111.106
   221    5   -1.0000    0.0000   -0.0000   0.01020 -6.1337E-03 -1.6159E-02  1.7284E-02 -110.786
   222    5   -1.0000    0.0000    0.0102   0.01020 -6.2936E-03 -1.6306E-02  1.7478E-02 -111.106
   223    5   -1.0000    0.0000    0.0204   0.01020 -6.4123E-03 -1.6374E-02  1.7585E-02 -111.386
   224    5   -1.0000    0.0000    0.0306   0.01020 -6.4743E-03 -1.6347E-02  1.7583E-02 -111.606
   225    5   -1.0000    0.0000    0.0408   0.01020 -6.4952E-03 -1.6242E-02  1.7493E-02 -111.796
   226    5   -1.0000    0.0000    0.0510   0.01020 -6.4789E-03 -1.6064E-02  1.7321E-02 -111.965
   227    5   -1.0000    0.0000    0.0612   0.01020 -6.4274E-03 -1.5814E-02  1.7070E-02 -112.119
   228    5   -1.0000    0.0000    0.0714   0.01020 -6.3422E-03 -1.5495E-02  1.6743E-02 -112.259
   229    5   -1.0000    0.0000    0.0816   0.01020 -6.2241E-03 -1.5109E-02  1.6341E-02 -112.389
   230    5   -1.0000    0.0000    0.0918   0.01020 -6.0743E-03 -1.4657E-02  1.5866E-02 -112.510
   231    5   -1.0000    0.0000    0.1020   0.01020 -5.8934E-03 -1.4142E-02  1.5321E-02 -112.623
   232    5   -1.0000    0.0000    0.1122   0.01020 -5.6825E-03 -1.3565E-02  1.4707E-02 -112.729
   233    5   -1.0000    0.0000    0.1224   0.01020 -5.4423E-03 -1.2928E-02  1.4027E-02 -112.830
   234    5   -1.0000    0.0000    0.1327   0.01020 -5.1737E-03 -1.2233E-02  1.3282E-02 -112.925
   235    5   -1.0000    0.0000    0.1429   0.01020 -4.8777E-03 -1.1483E-02  1.2476E-02 -113.015
   236    5   -1.0000    0.0000    0.1531   0.01020 -4.5551E-03 -1.0679E-02  1.1609E-02 -113.101
   237    5   -1.0000    0.0000    0.1633   0.01020 -4.2068E-03 -9.8229E-03  1.0686E-02 -113.184
   238    5   -1.0000    0.0000    0.1735   0.01020 -3.8336E-03 -8.9176E-03  9.7067E-03 -113.262
   239    5   -1.0000    0.0000    0.1837   0.01020 -3.4362E-03 -7.9641E-03  8.6738E-03 -113.338
   240    5   -1.0000    0.0000    0.1939   0.01020 -3.0150E-03 -6.9636E-03  7.5882E-03 -113.411
   241    5   -1.0000    0.0000    0.2041   0.01020 -2.5700E-03 -5.9158E-03  6.4500E-03 -113.481
   242    5   -1.0000    0.0000    0.2143   0.01020 -2.1003E-03 -4.8190E-03  5.2568E-03 -113.550
   243    5   -1.0000    0.0000    0.2245   0.01020 -1.6032E-03 -3.6668E-03  4.0019E-03 -113.616
   244    5   -1.0000    0.0000    0.2347   0.01020 -1.0718E-03 -2.4439E-03  2.6687E-03 -113.681
   245    5   -1.0000    0.0000    0.2449   0.01020 -4.5975E-04 -1.0452E-03  1.1419E-03 -113.743
   246    6   -0.7071   -0.7071   -0.2449   0.01020 -4.5093E-04 -1.0343E-03  1.1283E-03 -113.556
   247    6   -0.7071   -0.7071   -0.2347   0.01020 -1.0513E-03 -2.4183E-03  2.6369E-03 -113.495
   248    6   -0.7071   -0.7071   -0.2245   0.01020 -1.5724E-03 -3.6282E-03  3.9543E-03 -113.431
   249    6   -0.7071   -0.7071   -0.2143   0.01020 -2.0600E-03 -4.7681E-03  5.1941E-03 -113.366
   250    6   -0.7071   -0.7071   -0.2041   0.01020 -2.5206E-03 -5.8532E-03  6.3728E-03 -113.299
   251    6   -0.7071   -0.7071   -0.1939   0.01020 -2.9571E-03 -6.8895E-03  7.4973E-03 -113.230
   252    6   -0.7071   -0.7071   -0.1837   0.01020 -3.3701E-03 -7.8792E-03  8.5697E-03 -113.158
   253    6   -0.7071   -0.7071   -0.1735   0.01020 -3.7599E-03 -8.8221E-03  9.5899E-03 -113.083
   254    6   -0.7071   -0.7071   -0.1633   0.01020 -4.1259E-03 -9.7174E-03  1.0557E-02 -113.005
   255    6   -0.7071   -0.7071   -0.1531   0.01020 -4.4674E-03 -1.0563E-02  1.1469E-02 -112.924
   256    6   -0.7071   -0.7071   -0.1429   0.01020 -4.7838E-03 -1.1358E-02  1.2325E-02 -112.839
   257    6   -0.7071   -0.7071   -0.1327   0.01020 -5.0741E-03 -1.2100E-02  1.3121E-02 -112.750
   258    6   -0.7071   -0.7071   -0.1224   0.01020 -5.3374E-03 -1.2787E-02  1.3856E-02 -112.656
   259    6   -0.7071   -0.7071   -0.1122   0.01020 -5.5730E-03 -1.3416E-02  1.4528E-02 -112.557
   260    6   -0.7071   -0.7071   -0.1020   0.01020 -5.7798E-03 -1.3986E-02  1.5134E-02 -112.452
   261    6   -0.7071   -0.7071   -0.0918   0.01020 -5.9571E-03 -1.4495E-02  1.5672E-02 -112.341
   262    6   -0.7071   -0.7071   -0.0816   0.01020 -6.1039E-03 -1.4941E-02  1.6140E-02 -112.221
   263    6   -0.7071   -0.7071   -0.0714   0.01020 -6.2196E-03 -1.5322E-02  1.6537E-02 -112.093
   264    6   -0.7071   -0.7071   -0.0612   0.01020 -6.3031E-03 -1.5637E-02  1.6859E-02 -111.954
   265    6   -0.7071   -0.7071   -0.0510   0.01020 -6.3535E-03 -1.5883E-02  1.7106E-02 -111.803
   266    6   -0.7071   -0.7071   -0.0408   0.01020 -6.3694E-03 -1.6058E-02  1.7275E-02 -111.636
   267    6   -0.7071   -0.7071   -0.0306   0.01020 -6.3487E-03 -1.6160E-02  1.7363E-02 -111.448
   268    6   -0.7071   -0.7071   -0.0204   0.01020 -6.2878E-03 -1.6185E-02  1.7364E-02 -111.231
   269    6   -0.7071   -0.7071   -0.0102   0.01020 -6.1712E-03 -1.6116E-02  1.7257E-02 -110.953
   270    6   -0.7071   -0.7071   -0.0000   0.01020 -6.0142E-03 -1.5969E-02  1.7064E-02 -110.637
   271    6   -0.7071   -0.7071    0.0102   0.01020 -6.1712E-03 -1.6116E-02  1.7257E-02 -110.953
   272    6   -0.7071   -0.7071    0.0204   0.01020 -6.2878E-03 -1.6185E-02  1.7364E-02 -111.231
   273    6   -0.7071   -0.7071    0.0306   0.01020 -6.3487E-03 -1.6160E-02  1.7363E-02 -111.448
   274    6   -0.7071   -0.7071    0.0408   0.01020 -6.3694E-03 -1.6058E-02  1.7275E-02 -111.636
   275    6   -0.7071   -0.7071    0.0510   0.01020 -6.3535E-03 -1.5883E-02  1.7106E-02 -111.803
   276    6   -0.7071   -0.7071    0.0612   0.01020 -6.3031E-03 -1.5637E-02  1.6859E-02 -111.954
   277    6   -0.7071   -0.7071    0.0714   0.01020 -6.2196E-03 -1.5322E-02  1.6537E-02 -112.093
   278    6   -0.7071   -0.7071    0.0816   0.01020 -6.1039E-03 -1.4941E-02  1.6140E-02 -112.221
   279    6   -0.7071   -0.7071    0.0918   0.01020 -5.9571E-03 -1.4495E-02  1.5672E-02 -112.341
   280    6   -0.7071   -0.7071    0.1020   0.01020 -5.7798E-03 -1.3986E-02  1.5134E-02 -112.452
   281    6   -0.7071   -0.7071    0.1122   0.01020 -5.5730E-03 -1.3416E-02  1.4528E-02 -112.557
   282    6   -0.7071   -0.7071    0.1224   0.01020 -5.3374E-03 -1.2787E-02  1.3856E-02 -112.656
   283    6   -0.7071   -0.7071    0.1327   0.01020 -5.0741E-03 -1.2100E-02  1.3121E-02 -112.750
   284    6   -0.7071   -0.7071    0.1429   0.01020 -4.7838E-03 -1.1358E-02  1.2325E-02 -112.839
   285    6   -0.7071   -0.7071    0.1531   0.01020 -4.4674E-03 -1.0563E-02  1.1469E-02 -112.924
   286    6   -0.7071   -0.7071    0.1633   0.01020 -4.1259E-03 -9.7174E-03  1.0557E-02 -113.005
   287    6   -0.7071   -0.7071    0.1735   0.01020 -3.7599E-03 -8.8221E-03  9.5899E-03 -113.083
   288    6   -0.7071   -0.7071    0.1837   0.01020 -3.3701E-03 -7.8792E-03  8.5697E-03 -113.158
   289    6   -0.7071   -0.7071    0.1939   0.01020 -2.9571E-03 -6.8895E-03  7.4973E-03 -113.230
   290    6   -0.7071   -0.7071    0.2041   0.01020 -2.5206E-03 -5.8532E-03  6.3728E-03 -113.299
   291    6   -0.7071   -0.7071    0.2143   0.01020 -2.0600E-03 -4.7681E-03  5.1941E-03 -113.366
   292    6   -0.7071   -0.7071    0.2245   0.01020 -1.5724E-03 -3.6282E-03  3.9543E-03 -113.431
   293    6   -0.7071   -0.7071    0.2347   0.01020 -1.0513E-03 -2.4183E-03  2.6369E-03 -113.495
   294    6   -0.7071   -0.7071    0.2449   0.01020 -4.5093E-04 -1.0343E-03  1.1283E-03 -113.556
   295    7    0.0000   -1.0000   -0.2449   0.01020 -4.3450E-04 -1.0259E-03  1.1141E-03 -112.954
   296    7    0.0000   -1.0000   -0.2347   0.01020 -1.0129E-03 -2.3987E-03  2.6038E-03 -112.892
   297    7    0.0000   -1.0000   -0.2245   0.01020 -1.5149E-03 -3.5987E-03  3.9045E-03 -112.829
   298    7    0.0000   -1.0000   -0.2143   0.01020 -1.9844E-03 -4.7292E-03  5.1287E-03 -112.763
   299    7    0.0000   -1.0000   -0.2041   0.01020 -2.4280E-03 -5.8053E-03  6.2926E-03 -112.696
   300    7    0.0000   -1.0000   -0.1939   0.01020 -2.8481E-03 -6.8331E-03  7.4029E-03 -112.627
   301    7    0.0000   -1.0000   -0.1837   0.01020 -3.2456E-03 -7.8144E-03  8.4616E-03 -112.555
   302    7    0.0000   -1.0000   -0.1735   0.01020 -3.6206E-03 -8.7494E-03  9.4689E-03 -112.480
   303    7    0.0000   -1.0000   -0.1633   0.01020 -3.9726E-03 -9.6371E-03  1.0424E-02 -112.402
   304    7    0.0000   -1.0000   -0.1531   0.01020 -4.3010E-03 -1.0476E-02  1.1324E-02 -112.321
   305    7    0.0000   -1.0000   -0.1429   0.01020 -4.6050E-03 -1.1264E-02  1.2169E-02 -112.236
   306    7    0.0000   -1.0000   -0.1327   0.01020 -4.8838E-03 -1.1999E-02  1.2955E-02 -112.147
   307    7    0.0000   -1.0000   -0.1224   0.01020 -5.1366E-03 -1.2680E-02  1.3681E-02 -112.053
   308    7    0.0000   -1.0000   -0.1122   0.01020 -5.3626E-03 -1.3303E-02  1.4344E-02 -111.954
   309    7    0.0000   -1.0000   -0.1020   0.01020 -5.5608E-03 -1.3868E-02  1.4942E-02 -111.849
   310    7    0.0000   -1.0000   -0.0918   0.01020 -5.7304E-03 -1.4373E-02  1.5473E-02 -111.737
   311    7    0.0000   -1.0000   -0.0816   0.01020 -5.8707E-03 -1.4814E-02  1.5935E-02 -111.618
   312    7    0.0000   -1.0000   -0.0714   0.01020 -5.9808E-03 -1.5191E-02  1.6326E-02 -111.490
   313    7    0.0000   -1.0000   -0.0612   0.01020 -6.0599E-03 -1.5502E-02  1.6645E-02 -111.351
   314    7    0.0000   -1.0000   -0.0510   0.01020 -6.1070E-03 -1.5745E-02  1.6888E-02 -111.199
   315    7    0.0000   -1.0000   -0.0408   0.01020 -6.1207E-03 -1.5918E-02  1.7055E-02 -111.032
   316    7    0.0000   -1.0000   -0.0306   0.01020 -6.0991E-03 -1.6019E-02  1.7141E-02 -110.844
   317    7    0.0000   -1.0000   -0.0204   0.01020 -6.0385E-03 -1.6042E-02  1.7141E-02 -110.627
   318    7    0.0000   -1.0000   -0.0102   0.01020 -5.9239E-03 -1.5972E-02  1.7036E-02 -110.349
   319    7    0.0000   -1.0000   -0.0000   0.01020 -5.7702E-03 -1.5825E-02  1.6844E-02 -110.033
   320    7    0.0000   -1.0000    0.0102   0.01020 -5.9239E-03 -1.5972E-02  1.7036E-02 -110.349
   321    7    0.0000   -1.0000    0.0204   0.01020 -6.0385E-03 -1.6042E-02  1.7141E-02 -110.627
   322    7    0.0000   -1.0000    0.0306   0.01020 -6.0991E-03 -1.6019E-02  1.7141E-02 -110.844
   323    7    0.0000   -1.0000    0.0408   0.01020 -6.1207E-03 -1.5918E-02  1.7055E-02 -111.032
   324    7    0.0000   -1.0000    0.0510   0.01020 -6.1070E-03 -1.5745E-02  1.6888E-02 -111.199
   325    7    0.0000   -1.0000    0.0612   0.01020 -6.0599E-03 -1.5502E-02  1.6645E-02 -111.351
   326    7    0.0000   -1.0000    0.0714   0.01020 -5.9808E-03 -1.5191E-02  1.6326E-02 -111.490
   327    7    0.0000   -1.0000    0.0816   0.01020 -5.8707E-03 -1.4814E-02  1.5935E-02 -111.618
   328    7    0.0000   -1.0000    0.0918   0.01020 -5.7304E-03 -1.4373E-02  1.5473E-02 -111.737
   329    7    0.0000   -1.0000    0.1020   0.01020 -5.5608E-03 -1.3868E-02  1.4942E-02 -111.849
   330    7    0.0000   -1.0000    0.1122   0.01020 -5.3626E-03 -1.3303E-02  1.4344E-02 -111.954
   331    7    0.0000   -1.0000    0.1224   0.01020 -5.1366E-03 -1.2680E-02  1.3681E-02 -112.053
   332    7    0.0000   -1.0000    0.1327   0.01020 -4.8838E-03 -1.1999E-02  1.2955E-02 -112.147
   333    7    0.0000   -1.0000    0.1429   0.01020 -4.6050E-03 -1.1264E-02  1.2169E-02 -112.236
   334    7    0.0000   -1.0000    0.1531   0.01020 -4.3010E-03 -1.0476E-02  1.1324E-02 -112.321
   335    7    0.0000   -1.0000    0.1633   0.01020 -3.9726E-03 -9.6371E-03  1.0424E-02 -112.402
   336    7    0.0000   -1.0000    0.1735   0.01020 -3.6206E-03 -8.7494E-03  9.4689E-03 -112.480
   337    7    0.0000   -1.0000    0.1837   0.01020 -3.2456E-03 -7.8144E-03  8.4616E-03 -112.555
   338    7    0.0000   -1.0000    0.1939   0.01020 -2.8481E-03 -6.8331E-03  7.4029E-03 -112.627
   339    7    0.0000   -1.0000    0.2041   0.01020 -2.4280E-03 -5.8053E-03  6.2926E-03 -112.696
   340    7    0.0000   -1.0000    0.2143   0.01020 -1.9844E-03 -4.7292E-03  5.1287E-03 -112.763
   341    7    0.0000   -1.0000    0.2245   0.01020 -1.5149E-03 -3.5987E-03  3.9045E-03 -112.829
   342    7    0.0000   -1.0000    0.2347   0.01020 -1.0129E-03 -2.3987E-03  2.6038E-03 -112.892
   343    7    0.0000   -1.0000    0.2449   0.01020 -4.3450E-04 -1.0259E-03  1.1141E-03 -112.954
   344    8    0.7071   -0.7071   -0.2449   0.01020 -4.3368E-04 -1.0173E-03  1.1059E-03 -113.089
   345    8    0.7071   -0.7071   -0.2347   0.01020 -1.0111E-03 -2.3784E-03  2.5844E-03 -113.031
   346    8    0.7071   -0.7071   -0.2245   0.01020 -1.5124E-03 -3.5681E-03  3.8755E-03 -112.971
   347    8    0.7071   -0.7071   -0.2143   0.01020 -1.9816E-03 -4.6889E-03  5.0905E-03 -112.909
   348    8    0.7071   -0.7071   -0.2041   0.01020 -2.4249E-03 -5.7557E-03  6.2456E-03 -112.846
   349    8    0.7071   -0.7071   -0.1939   0.01020 -2.8449E-03 -6.7744E-03  7.3475E-03 -112.780
   350    8    0.7071   -0.7071   -0.1837   0.01020 -3.2426E-03 -7.7471E-03  8.3983E-03 -112.712
   351    8    0.7071   -0.7071   -0.1735   0.01020 -3.6179E-03 -8.6737E-03  9.3980E-03 -112.641
   352    8    0.7071   -0.7071   -0.1633   0.01020 -3.9704E-03 -9.5533E-03  1.0346E-02 -112.568
   353    8    0.7071   -0.7071   -0.1531   0.01020 -4.2994E-03 -1.0384E-02  1.1239E-02 -112.491
   354    8    0.7071   -0.7071   -0.1429   0.01020 -4.6043E-03 -1.1165E-02  1.2077E-02 -112.410
   355    8    0.7071   -0.7071   -0.1327   0.01020 -4.8842E-03 -1.1894E-02  1.2857E-02 -112.326
   356    8    0.7071   -0.7071   -0.1224   0.01020 -5.1382E-03 -1.2568E-02  1.3577E-02 -112.237
[...]
   98.00      0.00      6.39  -999.99     6.39      0.0000      0.00 LINEAR  3.1546E+00    -21.97  0.0000E+00     -0.00
   98.50      0.00      6.30  -999.99     6.30      0.0000      0.00 LINEAR  3.1235E+00    -21.97  0.0000E+00     -0.00
   99.00      0.00      6.21  -999.99     6.21      0.0000      0.00 LINEAR  3.0905E+00    -21.97  0.0000E+00     -0.00
   99.50      0.00      6.11  -999.99     6.11      0.0000      0.00 LINEAR  3.0557E+00    -21.97  0.0000E+00     -0.00
  100.00      0.00      6.01  -999.99     6.01      0.0000      0.00 LINEAR  3.0190E+00    -21.97  0.0000E+00     -0.00
  100.50      0.00      5.90  -999.99     5.90      0.0000      0.00 LINEAR  2.9805E+00    -21.96  0.0000E+00     -0.00
  101.00      0.00      5.78  -999.99     5.78      0.0000      0.00 LINEAR  2.9401E+00    -21.96  0.0000E+00     -0.00
  101.50      0.00      5.65  -999.99     5.65      0.0000      0.00 LINEAR  2.8979E+00    -21.96  0.0000E+00     -0.00
  102.00      0.00      5.52  -999.99     5.52      0.0000      0.00 LINEAR  2.8539E+00    -21.96  0.0000E+00     -0.00
  102.50      0.00      5.38  -999.99     5.38      0.0000      0.00 LINEAR  2.8081E+00    -21.96  0.0000E+00     -0.00
  103.00      0.00      5.23  -999.99     5.23      0.0000      0.00 LINEAR  2.7605E+00    -21.96  0.0000E+00     -0.00
  103.50      0.00      5.07  -999.99     5.07      0.0000      0.00 LINEAR  2.7111E+00    -21.96  0.0000E+00     -0.00
  104.00      0.00      4.91  -999.99     4.91      0.0000      0.00 LINEAR  2.6599E+00    -21.96  0.0000E+00     -0.00
  104.50      0.00      4.73  -999.99     4.73      0.0000      0.00 LINEAR  2.6070E+00    -21.96  0.0000E+00     -0.00
  105.00      0.00      4.55  -999.99     4.55      0.0000      0.00 LINEAR  2.5523E+00    -21.96  0.0000E+00     -0.00
  105.50      0.00      4.36  -999.99     4.36      0.0000      0.00 LINEAR  2.4960E+00    -21.96  0.0000E+00     -0.00
  106.00      0.00      4.15  -999.99     4.15      0.0000      0.00 LINEAR  2.4379E+00    -21.96  0.0000E+00     -0.00
  106.50      0.00      3.94  -999.99     3.94      0.0000      0.00 LINEAR  2.3781E+00    -21.95  0.0000E+00     -0.00
  107.00      0.00      3.71  -999.99     3.71      0.0000      0.00 LINEAR  2.3168E+00    -21.95  0.0000E+00     -0.00
  107.50      0.00      3.47  -999.99     3.47      0.0000      0.00 LINEAR  2.2537E+00    -21.95  0.0000E+00     -0.00
  108.00      0.00      3.22  -999.99     3.22      0.0000      0.00 LINEAR  2.1891E+00    -21.95  0.0000E+00     -0.00
  108.50      0.00      2.95  -999.99     2.95      0.0000      0.00 LINEAR  2.1230E+00    -21.95  0.0000E+00     -0.00
  109.00      0.00      2.67  -999.99     2.67      0.0000      0.00 LINEAR  2.0553E+00    -21.95  0.0000E+00     -0.00
  109.50      0.00      2.37  -999.99     2.37      0.0000      0.00 LINEAR  1.9861E+00    -21.94  0.0000E+00     -0.00
  110.00      0.00      2.06  -999.99     2.06      0.0000      0.00 LINEAR  1.9154E+00    -21.94  0.0000E+00     -0.00
  110.50      0.00      1.72  -999.99     1.72      0.0000      0.00 LINEAR  1.8433E+00    -21.94  0.0000E+00     -0.00
  111.00      0.00      1.37  -999.99     1.37      0.0000      0.00 LINEAR  1.7699E+00    -21.94  0.0000E+00     -0.00
  111.50      0.00      1.00  -999.99     1.00      0.0000      0.00 LINEAR  1.6951E+00    -21.93  0.0000E+00     -0.00
  112.00      0.00      0.60  -999.99     0.60      0.0000      0.00 LINEAR  1.6190E+00    -21.93  0.0000E+00     -0.00
  112.50      0.00      0.17  -999.99     0.17      0.0000      0.00 LINEAR  1.5418E+00    -21.92  0.0000E+00     -0.00
  113.00      0.00     -0.28  -999.99    -0.28      0.0000      0.00 LINEAR  1.4633E+00    -21.92  0.0000E+00     -0.00
  113.50      0.00     -0.77  -999.99    -0.77      0.0000      0.00 LINEAR  1.3837E+00    -21.91  0.0000E+00     -0.00
  114.00      0.00     -1.29  -999.99    -1.29      0.0000      0.00 LINEAR  1.3031E+00    -21.91  0.0000E+00     -0.00
  114.50      0.00     -1.85  -999.99    -1.85      0.0000      0.00 LINEAR  1.2214E+00    -21.90  0.0000E+00     -0.00
  115.00      0.00     -2.46  -999.99    -2.46      0.0000      0.00 LINEAR  1.1389E+00    -21.89  0.0000E+00     -0.00
  115.50      0.00     -3.12  -999.99    -3.12      0.0000      0.00 LINEAR  1.0554E+00    -21.88  0.0000E+00     -0.00
  116.00      0.00     -3.84  -999.99    -3.84      0.0000      0.00 LINEAR  9.7123E-01    -21.87  0.0000E+00     -0.00
  116.50      0.00     -4.64  -999.99    -4.64      0.0000      0.00 LINEAR  8.8631E-01    -21.86  0.0000E+00     -0.00
  117.00      0.00     -5.52  -999.99    -5.52      0.0000      0.00 LINEAR  8.0075E-01    -21.84  0.0000E+00     -0.00
  117.50      0.00     -6.51  -999.99    -6.51      0.0000      0.00 LINEAR  7.1464E-01    -21.82  0.0000E+00     -0.00
  118.00      0.00     -7.63  -999.99    -7.63      0.0000      0.00 LINEAR  6.2807E-01    -21.80  0.0000E+00     -0.00
  118.50      0.00     -8.92  -999.99    -8.92      0.0000      0.00 LINEAR  5.4113E-01    -21.76  0.0000E+00     -0.00
  119.00      0.00    -10.45  -999.99   -10.45      0.0000      0.00 LINEAR  4.5390E-01    -21.71  0.0000E+00     -0.00
  119.50      0.00    -12.31  -999.99   -12.31      0.0000      0.00 LINEAR  3.6648E-01    -21.64  0.0000E+00     -0.00
  120.00      0.00    -14.68  -999.99   -14.68      0.0000      0.00 LINEAR  2.7898E-01    -21.52  0.0000E+00     -0.00
  120.50      0.00    -17.95  -999.99   -17.95      0.0000      0.00 LINEAR  1.9148E-01    -21.29  0.0000E+00     -0.00
  121.00      0.00    -23.24  -999.99   -23.24      0.0000      0.00 LINEAR  1.0412E-01    -20.68  0.0000E+00     -0.00
  121.50      0.00    -38.93  -999.99   -38.93      0.0000      0.00 LINEAR  1.7103E-02    -13.82  0.0000E+00     -0.00
  122.00      0.00    -26.69  -999.99   -26.69      0.0000     -0.00 LINEAR  6.9941E-02    155.98  0.0000E+00     -0.00
  122.50      0.00    -19.71  -999.99   -19.71      0.0000     -0.00 LINEAR  1.5630E-01    157.08  0.0000E+00     -0.00
  123.00      0.00    -15.91  -999.99   -15.91      0.0000     -0.00 LINEAR  2.4212E-01    157.40  0.0000E+00     -0.00
  123.50      0.00    -13.29  -999.99   -13.29      0.0000     -0.00 LINEAR  3.2726E-01    157.55  0.0000E+00     -0.00
  124.00      0.00    -11.30  -999.99   -11.30      0.0000     -0.00 LINEAR  4.1161E-01    157.63  0.0000E+00     -0.00
  124.50      0.00     -9.70  -999.99    -9.70      0.0000     -0.00 LINEAR  4.9504E-01    157.69  0.0000E+00     -0.00
  125.00      0.00     -8.36  -999.99    -8.36      0.0000     -0.00 LINEAR  5.7743E-01    157.73  0.0000E+00     -0.00
  125.50      0.00     -7.22  -999.99    -7.22      0.0000     -0.00 LINEAR  6.5866E-01    157.76  0.0000E+00     -0.00
  126.00      0.00     -6.22  -999.99    -6.22      0.0000     -0.00 LINEAR  7.3859E-01    157.78  0.0000E+00     -0.00
  126.50      0.00     -5.34  -999.99    -5.34      0.0000     -0.00 LINEAR  8.1711E-01    157.80  0.0000E+00     -0.00
  127.00      0.00     -4.56  -999.99    -4.56      0.0000     -0.00 LINEAR  8.9409E-01    157.81  0.0000E+00     -0.00
  127.50      0.00     -3.86  -999.99    -3.86      0.0000     -0.00 LINEAR  9.6939E-01    157.82  0.0000E+00     -0.00
  128.00      0.00     -3.22  -999.99    -3.22      0.0000     -0.00 LINEAR  1.0429E+00    157.83  0.0000E+00     -0.00
  128.50      0.00     -2.65  -999.99    -2.65      0.0000     -0.00 LINEAR  1.1145E+00    157.84  0.0000E+00     -0.00
  129.00      0.00     -2.12  -999.99    -2.12      0.0000     -0.00 LINEAR  1.1840E+00    157.85  0.0000E+00     -0.00
  129.50      0.00     -1.64  -999.99    -1.64      0.0000     -0.00 LINEAR  1.2513E+00    157.85  0.0000E+00     -0.00
  130.00      0.00     -1.20  -999.99    -1.20      0.0000     -0.00 LINEAR  1.3163E+00    157.86  0.0000E+00     -0.00
  130.50      0.00     -0.80  -999.99    -0.80      0.0000     -0.00 LINEAR  1.3789E+00    157.86  0.0000E+00     -0.00
  131.00      0.00     -0.43  -999.99    -0.43      0.0000     -0.00 LINEAR  1.4389E+00    157.87  0.0000E+00     -0.00
  131.50      0.00     -0.09  -999.99    -0.09      0.0000     -0.00 LINEAR  1.4963E+00    157.87  0.0000E+00     -0.00
  132.00      0.00      0.22  -999.99     0.22      0.0000     -0.00 LINEAR  1.5509E+00    157.87  0.0000E+00     -0.00
  132.50      0.00      0.51  -999.99     0.51      0.0000     -0.00 LINEAR  1.6025E+00    157.87  0.0000E+00     -0.00
  133.00      0.00      0.77  -999.99     0.77      0.0000     -0.00 LINEAR  1.6511E+00    157.87  0.0000E+00     -0.00
  133.50      0.00      1.00  -999.99     1.00      0.0000     -0.00 LINEAR  1.6967E+00    157.88  0.0000E+00     -0.00
  134.00      0.00      1.22  -999.99     1.22      0.0000     -0.00 LINEAR  1.7389E+00    157.88  0.0000E+00     -0.00
  134.50      0.00      1.41  -999.99     1.41      0.0000     -0.00 LINEAR  1.7779E+00    157.88  0.0000E+00     -0.00
  135.00      0.00      1.58  -999.99     1.58      0.0000     -0.00 LINEAR  1.8134E+00    157.88  0.0000E+00     -0.00
  135.50      0.00      1.73  -999.99     1.73      0.0000     -0.00 LINEAR  1.8455E+00    157.88  0.0000E+00     -0.00
  136.00      0.00      1.87  -999.99     1.87      0.0000     -0.00 LINEAR  1.8740E+00    157.88  0.0000E+00     -0.00
  136.50      0.00      1.98  -999.99     1.98      0.0000     -0.00 LINEAR  1.8988E+00    157.88  0.0000E+00     -0.00
  137.00      0.00      2.08  -999.99     2.08      0.0000     -0.00 LINEAR  1.9198E+00    157.88  0.0000E+00     -0.00
  137.50      0.00      2.15  -999.99     2.15      0.0000     -0.00 LINEAR  1.9371E+00    157.88  0.0000E+00     -0.00
  138.00      0.00      2.21  -999.99     2.21      0.0000     -0.00 LINEAR  1.9506E+00    157.88  0.0000E+00     -0.00
  138.50      0.00      2.26  -999.99     2.26      0.0000     -0.00 LINEAR  1.9602E+00    157.87  0.0000E+00     -0.00
  139.00      0.00      2.28  -999.99     2.28      0.0000     -0.00 LINEAR  1.9658E+00    157.87  0.0000E+00     -0.00
  139.50      0.00      2.29  -999.99     2.29      0.0000     -0.00 LINEAR  1.9676E+00    157.87  0.0000E+00     -0.00
  140.00      0.00      2.28  -999.99     2.28      0.0000     -0.00 LINEAR  1.9653E+00    157.87  0.0000E+00     -0.00
  140.50      0.00      2.25  -999.99     2.25      0.0000     -0.00 LINEAR  1.9591E+00    157.87  0.0000E+00     -0.00
  141.00      0.00      2.21  -999.99     2.21      0.0000     -0.00 LINEAR  1.9490E+00    157.87  0.0000E+00     -0.00
  141.50      0.00      2.14  -999.99     2.14      0.0000     -0.00 LINEAR  1.9349E+00    157.87  0.0000E+00     -0.00
  142.00      0.00      2.06  -999.99     2.06      0.0000     -0.00 LINEAR  1.9168E+00    157.86  0.0000E+00     -0.00
  142.50      0.00      1.96  -999.99     1.96      0.0000     -0.00 LINEAR  1.8949E+00    157.86  0.0000E+00     -0.00
  143.00      0.00      1.84  -999.99     1.84      0.0000     -0.00 LINEAR  1.8691E+00    157.86  0.0000E+00     -0.00
  143.50      0.00      1.71  -999.99     1.71      0.0000     -0.00 LINEAR  1.8395E+00    157.86  0.0000E+00     -0.00
  144.00      0.00      1.55  -999.99     1.55      0.0000     -0.00 LINEAR  1.8061E+00    157.85  0.0000E+00     -0.00
  144.50      0.00      1.37  -999.99     1.37      0.0000     -0.00 LINEAR  1.7691E+00    157.85  0.0000E+00     -0.00
  145.00      0.00      1.16  -999.99     1.16      0.0000     -0.00 LINEAR  1.7285E+00    157.84  0.0000E+00     -0.00
  145.50      0.00      0.94  -999.99     0.94      0.0000     -0.00 LINEAR  1.6845E+00    157.84  0.0000E+00     -0.00
  146.00      0.00      0.69  -999.99     0.69      0.0000     -0.00 LINEAR  1.6370E+00    157.84  0.0000E+00     -0.00
  146.50      0.00      0.42  -999.99     0.42      0.0000     -0.00 LINEAR  1.5864E+00    157.83  0.0000E+00     -0.00
  147.00      0.00      0.12  -999.99     0.12      0.0000     -0.00 LINEAR  1.5326E+00    157.83  0.0000E+00     -0.00
  147.50      0.00     -0.21  -999.99    -0.21      0.0000     -0.00 LINEAR  1.4758E+00    157.82  0.0000E+00     -0.00
  148.00      0.00     -0.57  -999.99    -0.57      0.0000     -0.00 LINEAR  1.4161E+00    157.81  0.0000E+00     -0.00
  148.50      0.00     -0.96  -999.99    -0.96      0.0000     -0.00 LINEAR  1.3538E+00    157.81  0.0000E+00     -0.00
  149.00      0.00     -1.38  -999.99    -1.38      0.0000     -0.00 LINEAR  1.2890E+00    157.80  0.0000E+00     -0.00
  149.50      0.00     -1.85  -999.99    -1.85      0.0000     -0.00 LINEAR  1.2219E+00    157.79  0.0000E+00     -0.00
  150.00      0.00     -2.36  -999.99    -2.36      0.0000     -0.00 LINEAR  1.1526E+00    157.78  0.0000E+00     -0.00
  150.50      0.00     -2.91  -999.99    -2.91      0.0000     -0.00 LINEAR  1.0814E+00    157.77  0.0000E+00     -0.00
  151.00      0.00     -3.52  -999.99    -3.52      0.0000     -0.00 LINEAR  1.0084E+00    157.76  0.0000E+00     -0.00
  151.50      0.00     -4.18  -999.99    -4.18      0.0000     -0.00 LINEAR  9.3389E-01    157.74  0.0000E+00     -0.00
  152.00      0.00     -4.92  -999.99    -4.92      0.0000     -0.00 LINEAR  8.5806E-01    157.73  0.0000E+00     -0.00
  152.50      0.00     -5.73  -999.99    -5.73      0.0000     -0.00 LINEAR  7.8113E-01    157.71  0.0000E+00     -0.00
  153.00      0.00     -6.65  -999.99    -6.65      0.0000     -0.00 LINEAR  7.0334E-01    157.68  0.0000E+00     -0.00
  153.50      0.00     -7.67  -999.99    -7.67      0.0000     -0.00 LINEAR  6.2491E-01    157.65  0.0000E+00     -0.00
  154.00      0.00     -8.84  -999.99    -8.84      0.0000     -0.00 LINEAR  5.4608E-01    157.61  0.0000E+00     -0.00
  154.50      0.00    -10.20  -999.99   -10.20      0.0000     -0.00 LINEAR  4.6709E-01    157.56  0.0000E+00     -0.00
  155.00      0.00    -11.81  -999.99   -11.81      0.0000     -0.00 LINEAR  3.8818E-01    157.49  0.0000E+00     -0.00
  155.50      0.00    -13.77  -999.99   -13.77      0.0000     -0.00 LINEAR  3.0958E-01    157.38  0.0000E+00     -0.00
  156.00      0.00    -16.30  -999.99   -16.30      0.0000     -0.00 LINEAR  2.3156E-01    157.20  0.0000E+00     -0.00
  156.50      0.00    -19.82  -999.99   -19.82      0.0000     -0.00 LINEAR  1.5435E-01    156.85  0.0000E+00     -0.00
  157.00      0.00    -25.72  -999.99   -25.72      0.0000     -0.00 LINEAR  7.8201E-02    155.84  0.0000E+00     -0.00
  157.50      0.00    -50.91  -999.99   -50.91      0.0000     -0.00 LINEAR  4.3041E-03    117.27  0.0000E+00     -0.00
  158.00      0.00    -26.67  -999.99   -26.67      0.0000      0.00 LINEAR  7.0147E-02    -19.83  0.0000E+00     -0.00
  158.50      0.00    -20.56  -999.99   -20.56      0.0000      0.00 LINEAR  1.4172E-01    -20.98  0.0000E+00     -0.00
  159.00      0.00    -17.09  -999.99   -17.09      0.0000      0.00 LINEAR  2.1133E-01    -21.36  0.0000E+00     -0.00
  159.50      0.00    -14.69  -999.99   -14.69      0.0000      0.00 LINEAR  2.7873E-01    -21.55  0.0000E+00     -0.00
  160.00      0.00    -12.86  -999.99   -12.86      0.0000      0.00 LINEAR  3.4371E-01    -21.66  0.0000E+00     -0.00
  160.50      0.00    -11.42  -999.99   -11.42      0.0000      0.00 LINEAR  4.0606E-01    -21.73  0.0000E+00     -0.00
  161.00      0.00    -10.23  -999.99   -10.23      0.0000      0.00 LINEAR  4.6559E-01    -21.79  0.0000E+00     -0.00
  161.50      0.00     -9.23  -999.99    -9.23      0.0000      0.00 LINEAR  5.2209E-01    -21.83  0.0000E+00     -0.00
  162.00      0.00     -8.39  -999.99    -8.39      0.0000      0.00 LINEAR  5.7539E-01    -21.86  0.0000E+00     -0.00
  162.50      0.00     -7.67  -999.99    -7.67      0.0000      0.00 LINEAR  6.2532E-01    -21.89  0.0000E+00     -0.00
  163.00      0.00     -7.04  -999.99    -7.04      0.0000      0.00 LINEAR  6.7173E-01    -21.91  0.0000E+00     -0.00
  163.50      0.00     -6.51  -999.99    -6.51      0.0000      0.00 LINEAR  7.1446E-01    -21.93  0.0000E+00     -0.00
  164.00      0.00     -6.05  -999.99    -6.05      0.0000      0.00 LINEAR  7.5339E-01    -21.94  0.0000E+00     -0.00
  164.50      0.00     -5.65  -999.99    -5.65      0.0000      0.00 LINEAR  7.8839E-01    -21.95  0.0000E+00     -0.00
  165.00      0.00     -5.32  -999.99    -5.32      0.0000      0.00 LINEAR  8.1937E-01    -21.97  0.0000E+00     -0.00
  165.50      0.00     -5.04  -999.99    -5.04      0.0000      0.00 LINEAR  8.4622E-01    -21.98  0.0000E+00     -0.00
  166.00      0.00     -4.81  -999.99    -4.81      0.0000      0.00 LINEAR  8.6889E-01    -21.99  0.0000E+00     -0.00
  166.50      0.00     -4.63  -999.99    -4.63      0.0000      0.00 LINEAR  8.8730E-01    -22.00  0.0000E+00     -0.00
  167.00      0.00     -4.49  -999.99    -4.49      0.0000      0.00 LINEAR  9.0142E-01    -22.00  0.0000E+00     -0.00
  167.50      0.00     -4.40  -999.99    -4.40      0.0000      0.00 LINEAR  9.1122E-01    -22.01  0.0000E+00     -0.00
  168.00      0.00     -4.34  -999.99    -4.34      0.0000      0.00 LINEAR  9.1668E-01    -22.02  0.0000E+00     -0.00
  168.50      0.00     -4.33  -999.99    -4.33      0.0000      0.00 LINEAR  9.1783E-01    -22.02  0.0000E+00     -0.00
  169.00      0.00     -4.36  -999.99    -4.36      0.0000      0.00 LINEAR  9.1467E-01    -22.03  0.0000E+00     -0.00
  169.50      0.00     -4.43  -999.99    -4.43      0.0000      0.00 LINEAR  9.0725E-01    -22.04  0.0000E+00     -0.00
  170.00      0.00     -4.55  -999.99    -4.55      0.0000      0.00 LINEAR  8.9562E-01    -22.04  0.0000E+00     -0.00
  170.50      0.00     -4.70  -999.99    -4.70      0.0000      0.00 LINEAR  8.7987E-01    -22.05  0.0000E+00     -0.00
  171.00      0.00     -4.90  -999.99    -4.90      0.0000      0.00 LINEAR  8.6007E-01    -22.05  0.0000E+00     -0.00
  171.50      0.00     -5.14  -999.99    -5.14      0.0000      0.00 LINEAR  8.3634E-01    -22.06  0.0000E+00     -0.00
  172.00      0.00     -5.43  -999.99    -5.43      0.0000      0.00 LINEAR  8.0879E-01    -22.06  0.0000E+00     -0.00
  172.50      0.00     -5.77  -999.99    -5.77      0.0000      0.00 LINEAR  7.7757E-01    -22.06  0.0000E+00     -0.00
  173.00      0.00     -6.17  -999.99    -6.17      0.0000      0.00 LINEAR  7.4281E-01    -22.07  0.0000E+00     -0.00
  173.50      0.00     -6.63  -999.99    -6.63      0.0000      0.00 LINEAR  7.0470E-01    -22.07  0.0000E+00     -0.00
  174.00      0.00     -7.15  -999.99    -7.15      0.0000      0.00 LINEAR  6.6340E-01    -22.08  0.0000E+00     -0.00
  174.50      0.00     -7.75  -999.99    -7.75      0.0000      0.00 LINEAR  6.1912E-01    -22.08  0.0000E+00     -0.00
  175.00      0.00     -8.44  -999.99    -8.44      0.0000      0.00 LINEAR  5.7205E-01    -22.08  0.0000E+00     -0.00
  175.50      0.00     -9.23  -999.99    -9.23      0.0000      0.00 LINEAR  5.2241E-01    -22.09  0.0000E+00     -0.00
  176.00      0.00    -10.14  -999.99   -10.14      0.0000      0.00 LINEAR  4.7042E-01    -22.09  0.0000E+00     -0.00
  176.50      0.00    -11.20  -999.99   -11.20      0.0000      0.00 LINEAR  4.1633E-01    -22.09  0.0000E+00     -0.00
  177.00      0.00    -12.45  -999.99   -12.45      0.0000      0.00 LINEAR  3.6037E-01    -22.10  0.0000E+00     -0.00
  177.50      0.00    -13.97  -999.99   -13.97      0.0000      0.00 LINEAR  3.0280E-01    -22.10  0.0000E+00     -0.00
  178.00      0.00    -15.85  -999.99   -15.85      0.0000      0.00 LINEAR  2.4388E-01    -22.10  0.0000E+00     -0.00
  178.50      0.00    -18.30  -999.99   -18.30      0.0000      0.00 LINEAR  1.8387E-01    -22.11  0.0000E+00     -0.00
  179.00      0.00    -21.79  -999.99   -21.79      0.0000      0.00 LINEAR  1.2303E-01    -22.11  0.0000E+00     -0.00
  179.50      0.00    -27.79  -999.99   -27.79      0.0000      0.00 LINEAR  6.1654E-02    -22.11  0.0000E+00     -0.00
  180.00      0.00   -999.99  -999.99  -999.99      0.0000      0.00         7.2164E-11    157.88  0.0000E+00     -0.00



  DATA CARD No:  10 EN   0     0     0     0  0.00000E+00  0.00000E+00  0.00000E+00  0.00000E+00  0.00000E+00  0.00000E+00

  TOTAL RUN TIME: 440 msec